function mpc = case1354pegase_solved
%CASE1354PEGASE_SOLVED

%% MATPOWER Case Format : Version 2
mpc.version = '2';

%%-----  Power Flow Data  -----%%
%% system MVA base
mpc.baseMVA = 100;

%% bus data
%	bus_i	type	Pd	Qd	Gs	Bs	area	Vm	Va	baseKV	zone	Vmax	Vmin	lam_P	lam_Q	mu_Vmax	mu_Vmin
mpc.bus = [
	3	1	151	48.8	0	4.69	0	1.07518546	-8.39138124	220	5	1.1	0.9	1.0232	0.0045	0.0000	0.0000;
	4	1	171.41	23.4	0	2.1	0	1.06218344	-5.59589168	220	5	1.1	0.9	1.0155	0.0030	0.0000	0.0000;
	10	1	134	24.7	0	12.44	0	1.06448174	-17.4552996	220	5	1.1	0.9	1.0435	-0.0079	0.0000	0.0000;
	21	1	161.2	39.3	0	30.71	0	1.05995645	-16.0756765	220	5	1.1	0.9	1.0400	-0.0020	0.0000	0.0000;
	22	1	0	-0	0	0.85	0	1.07821161	-11.101191	220	5	1.1	0.9	1.0206	0.0037	0.0000	0.0000;
	26	1	167.3	54.8	0	110.54	0	1.07076895	-1.22391475	380	5	1.1	0.9	1.0015	0.0002	0.0000	0.0000;
	29	1	152.9	49.4	0	27.65	0	1.04995865	-3.00639614	380	5	1.1	0.9	1.0076	0.0007	0.0000	0.0000;
	44	1	-0	0	0	7.27	0	1.07134507	-15.4794183	220	5	1.1	0.9	1.0327	-0.0082	0.0000	0.0000;
	53	1	48.65	16.1	0	7.14	0	1.09042644	-2.01095588	220	5	1.1	0.9	1.0011	0.0001	0.0000	0.0000;
	58	1	0	0	0	2.31	0	1.04515849	-1.17541266	380	5	1.1	0.9	1.0000	-0.0003	0.0000	0.0000;
	59	1	119.2	20.7	0	3.31	0	1.08401309	-14.6407629	220	5	1.1	0.9	1.0375	-0.0046	0.0000	0.0000;
	90	1	363.25	115.39	0	3.95	0	1.08209711	-11.0271673	220	5	1.1	0.9	1.0266	0.0027	0.0000	0.0000;
	96	1	-8.4	28.66	0	3.49	0	1.09578551	-1.98769375	220	5	1.1	0.9	1.0058	0.0013	0.0000	0.0000;
	113	1	-0	-0	0	6.532711	0	1.06618739	-4.08534022	380	5	1.1	0.9	1.0098	0.0011	0.0000	0.0000;
	115	1	0	-0	0	4.21	0	1.07004352	-12.6057358	220	5	1.1	0.9	1.0254	0.0020	0.0000	0.0000;
	118	1	704.53	-35.33	0	13.102834	0	1.07422056	-4.12219735	380	5	1.1	0.9	1.0070	-0.0002	0.0000	0.0000;
	124	2	0	0	0	0	0	1.07560978	2.13987787	220	5	1.1	0.9	0.9975	-0.0000	0.0000	0.0000;
	128	1	23.73	12.7	0	0.52	0	1.05041005	-12.6894729	220	5	1.1	0.9	1.0355	0.0068	0.0000	0.0000;
	145	1	38.34	5.6	0	7.64	0	1.0909938	-4.22164651	220	5	1.1	0.9	1.0025	-0.0000	0.0000	0.0000;
	148	1	32.34	12	0	6.1	0	1.07304733	-4.39485076	220	5	1.1	0.9	1.0072	0.0012	0.0000	0.0000;
	150	2	0	0	0	0	0	1.08400625	-3.1481165	220	5	1.1	0.9	1.0000	-0.0000	0.0000	0.0000;
	163	1	147.76	32.73	0	8.34	0	1.07922115	-8.55731848	220	5	1.1	0.9	1.0163	0.0044	0.0000	0.0000;
	171	1	100.8	13.2	0	5.24	0	1.08936428	-9.62357306	220	5	1.1	0.9	1.0160	0.0012	0.0000	0.0000;
	174	1	370.5	-17	0	9.91	0	1.09115766	-16.3583936	220	5	1.1	0.9	1.0420	-0.0222	0.0000	0.0000;
	184	1	-0	-0	0	2.42	0	1.0642808	-10.1531187	220	5	1.1	0.9	1.0210	0.0031	0.0000	0.0000;
	188	1	36.84	13.9	0	3.3	0	1.0573004	-9.72303953	220	5	1.1	0.9	1.0220	0.0050	0.0000	0.0000;
	195	1	73.14	21.55	0	8.52	0	1.08525234	-3.29258087	220	5	1.1	0.9	1.0014	0.0001	0.0000	0.0000;
	196	1	0	-0	0	12.48	0	1.09931864	-20.4554327	220	5	1.1	0.9	1.0276	-0.0893	0.0000	0.0000;
	198	1	39.74	11.8	0	1.44	0	1.04628611	-13.1031035	220	5	1.1	0.9	1.0383	0.0082	0.0000	0.0000;
	207	1	321.98	84.4	0	1.34	0	1.04886896	-11.8262141	220	5	1.1	0.9	1.0327	0.0063	0.0000	0.0000;
	216	1	155.6	54.7	0	2.21	0	1.08763113	-15.6666253	220	5	1.1	0.9	1.0410	0.0004	0.0000	0.0000;
	217	1	105.2	0.1	0	7.36	0	1.04421461	-6.21494747	220	5	1.1	0.9	1.0151	0.0033	0.0000	0.0000;
	218	1	69.83	15.12	0	2.23	0	1.08943467	-7.9229013	220	5	1.1	0.9	1.0145	0.0023	0.0000	0.0000;
	221	2	0	0	0	0	0	1.04083142	-1.20884817	380	5	1.1	0.9	1.0001	-0.0000	0.0000	0.0000;
	225	1	0	0	0	1.15	0	1.06717421	-12.9833968	220	5	1.1	0.9	1.0278	0.0025	0.0000	0.0000;
	280	1	119.6	29.6	0	5.34	0	1.08079257	-5.52537091	220	5	1.1	0.9	1.0066	0.0004	0.0000	0.0000;
	283	1	27.33	11.9	0	1.17	0	1.05824138	-10.6194791	220	5	1.1	0.9	1.0253	0.0044	0.0000	0.0000;
	292	1	13.82	1.4	0	0.7	0	1.09663179	-7.73965252	220	5	1.1	0.9	1.0140	0.0015	0.0000	0.0000;
	305	1	103	12	0	0.63	0	1.0832916	-19.0579336	220	5	1.1	0.9	1.0489	0.0014	0.0000	0.0000;
	306	1	-0	0	0	4.76	0	1.04673877	-14.1500335	220	5	1.1	0.9	1.0286	-0.0024	0.0000	0.0000;
	314	1	163.1	46.3	0	10.6	0	1.03304683	-14.2270944	220	5	1.1	0.9	1.0400	0.0136	0.0000	0.0000;
	333	1	524.5	43	0	6.85	0	1.03465432	-26.9441755	220	5	1.1	0.9	1.1072	0.0135	0.0000	0.0000;
	338	2	0	0	0	0	0	1.09917702	-3.06168588	220	5	1.1	0.9	1.0000	-0.0000	0.0000	0.0000;
	346	1	197.5	48.3	0	0.71	0	1.08472718	-13.4590666	220	5	1.1	0.9	1.0349	0.0017	0.0000	0.0000;
	350	1	110.4	26.2	0	5.62	0	1.06870823	-16.543244	220	5	1.1	0.9	1.0404	-0.0079	0.0000	0.0000;
	352	2	0	0	0	0	0	1.02170566	1.79362972	380	5	1.1	0.9	1.0000	-0.0000	0.0000	0.0000;
	367	1	65.17	-51.5	0	4.85	0	1.09517985	-17.8470076	220	5	1.1	0.9	1.0264	-0.0668	0.0000	0.0000;
	401	1	56.5	36.29	0	3.08	0	1.09462531	-5.27488115	220	5	1.1	0.9	1.0006	0.0002	0.0000	0.0000;
	408	1	129.1	7.4	0	0.04	0	1.0673034	-10.0958791	220	5	1.1	0.9	1.0217	0.0020	0.0000	0.0000;
	410	1	170.89	50.38	0	6.44	0	1.0843667	-14.4437318	220	5	1.1	0.9	1.0388	0.0006	0.0000	0.0000;
	413	2	0	0	0	0	0	1.07868464	1.36999452	220	5	1.1	0.9	1.0000	-0.0000	0.0000	0.0000;
	416	1	70.68	13.5	0	6.96	0	1.09096325	-5.62793808	220	5	1.1	0.9	1.0046	0.0011	0.0000	0.0000;
	426	1	123.1	6.5	0	3.25	0	1.08070063	-9.54727189	220	5	1.1	0.9	1.0305	0.0009	0.0000	0.0000;
	432	1	-0	-0	0	68.517663	0	1.06357785	-0.0561538209	380	5	1.1	0.9	0.9988	-0.0001	0.0000	0.0000;
	444	1	0	-0	0	2.45	0	1.05830705	-10.6550311	220	5	1.1	0.9	1.0248	0.0044	0.0000	0.0000;
	449	1	0	0	0	29.42	0	1.02444374	-2.58882015	380	5	1.1	0.9	1.0045	-0.0001	0.0000	0.0000;
	453	2	0	0	0	0	0	1.06627496	-1.09015466	380	5	1.1	0.9	1.0000	-0.0000	0.0000	0.0000;
	455	1	274.32	5.66	0	13.24	0	1.06808594	-17.0515042	220	5	1.1	0.9	1.0517	0.0023	0.0000	0.0000;
	490	1	20.52	4	0	2.77	0	1.05706692	-16.9031532	220	5	1.1	0.9	1.0361	-0.0004	0.0000	0.0000;
	500	1	144.4	35.5	0	7.66	0	1.08105423	-6.4631899	220	5	1.1	0.9	1.0096	0.0019	0.0000	0.0000;
	502	1	-0	0	0	1.96	0	1.08194226	-2.29074772	220	5	1.1	0.9	1.0003	0.0000	0.0000	0.0000;
	506	1	-0	0	0	0.4	0	1.07706428	-0.774498141	380	5	1.1	0.9	1.0002	0.0000	0.0000	0.0000;
	513	1	57.46	17.1	0	1.61	0	1.07702445	-3.13972925	220	5	1.1	0.9	1.0043	0.0009	0.0000	0.0000;
	516	2	0	0	0	0	0	1.08445586	-17.1168383	220	5	1.1	0.9	1.0000	0.0000	0.0000	0.0000;
	520	1	118.5	20.4	0	2.57	0	1.09558402	-8.79611527	220	5	1.1	0.9	1.0145	0.0001	0.0000	0.0000;
	549	1	0	-0	0	5.15	0	1.09996307	-3.8885841	220	5	1.1	0.9	1.0038	-0.0088	0.0000	0.0000;
	554	1	0	-0	0	1.97	0	1.06793657	-13.2287223	220	5	1.1	0.9	1.0310	0.0052	0.0000	0.0000;
	556	1	16.52	9	0	1.17	0	1.05777221	-16.7007989	220	5	1.1	0.9	1.0349	-0.0004	0.0000	0.0000;
	561	1	0	-0	0	0.32	0	1.09019102	-2.75570112	220	5	1.1	0.9	1.0050	0.0001	0.0000	0.0000;
	564	2	0	0	0	0	0	1.09409254	-28.8748857	220	5	1.1	0.9	1.0922	-0.0003	0.0000	0.0000;
	575	1	0	-0	0	0.67	0	1.06702523	-10.1650475	220	5	1.1	0.9	1.0219	0.0025	0.0000	0.0000;
	583	2	0	0	0	0	0	1.09128782	-4.51540749	220	5	1.1	0.9	1.0000	0.0003	0.0000	0.0000;
	594	1	67.57	17	0	5.75	0	1.06043297	-0.94700959	220	5	1.1	0.9	1.0130	0.0026	0.0000	0.0000;
	601	1	140.6	42.6	0	5.71	0	1.09157577	-6.69497682	220	5	1.1	0.9	1.0097	0.0019	0.0000	0.0000;
	604	1	33.24	4.4	0	24.54	0	1.02466917	-8.07412579	380	5	1.1	0.9	1.0246	-0.0001	0.0000	0.0000;
	608	1	150.9	10.4	0	4.77	0	1.09616188	-15.410375	220	5	1.1	0.9	1.0381	-0.0011	0.0000	0.0000;
	609	1	-0	-0	0	5.67	0	1.06924187	-8.18068363	220	5	1.1	0.9	1.0188	0.0053	0.0000	0.0000;
	615	2	0	0	0	0	0	1.09555069	-4.08456436	220	5	1.1	0.9	0.9939	-0.0000	0.0000	0.0000;
	616	2	0	0	0	0	0	1.1	-5.09880534	220	5	1.1	0.9	1.0005	-0.0000	14.4996	0.0000;
	619	1	72.88	14.4	0	2.96	0	1.09471658	-16.7168265	220	5	1.1	0.9	1.0389	0.0025	0.0000	0.0000;
	639	2	0	0	0	0	0	1.0962308	-19.6131063	220	5	1.1	0.9	1.0652	0.0000	0.0000	0.0000;
	641	1	45.32	18.5	0	0.74	0	1.09628234	-1.33246702	220	5	1.1	0.9	1.0049	0.0007	0.0000	0.0000;
	658	1	258.4	66.7	0	5.87	0	1.05675526	-7.65913416	220	5	1.1	0.9	1.0139	0.0073	0.0000	0.0000;
	661	1	-0	-0	0	0.6	0	1.03505875	-1.61879655	380	5	1.1	0.9	1.0023	0.0000	0.0000	0.0000;
	666	1	-5.61	-2.79	0	150.93	0	1.06024318	-3.20910998	380	5	1.1	0.9	1.0032	-0.0000	0.0000	0.0000;
	678	1	232.1	89.8	0	0.09	0	1.08730859	-2.49513207	220	5	1.1	0.9	1.0087	0.0033	0.0000	0.0000;
	682	2	0	0	0	0	0	1.08649795	-3.11646557	220	5	1.1	0.9	1.0000	-0.0005	0.0000	0.0000;
	687	1	-0	0	0	5.6	0	1.07195155	-4.89703555	220	5	1.1	0.9	1.0031	0.0006	0.0000	0.0000;
	707	1	83.99	21.2	0	5.36	0	1.08327132	-8.72406671	220	5	1.1	0.9	1.0139	0.0033	0.0000	0.0000;
	718	1	135.11	41	0	5.31	0	1.08560443	-8.83488036	220	5	1.1	0.9	1.0165	0.0022	0.0000	0.0000;
	720	1	-0	-0	0	23.554121	0	1.02680194	-17.5525197	380	5	1.1	0.9	1.0619	0.0005	0.0000	0.0000;
	726	1	400.3	189.9	0	0.53	0	1.06273323	-5.73837542	220	5	1.1	0.9	1.0056	0.0018	0.0000	0.0000;
	742	1	0	-0	0	2.83	0	1.07212355	-4.89854376	220	5	1.1	0.9	1.0031	0.0005	0.0000	0.0000;
	747	1	69.58	16	0	3.03	0	1.09843157	-20.5134263	220	5	1.1	0.9	1.0283	-0.0891	0.0000	0.0000;
	749	2	0	0	0	0	0	1.09240985	-9.28855733	220	5	1.1	0.9	1.0157	-0.0000	0.0000	0.0000;
	750	1	-0	-0	0	18.63	0	1.08934521	-15.5337174	220	5	1.1	0.9	1.0403	-0.0000	0.0000	0.0000;
	757	2	0	0	0	0	0	1.05477137	-5.35232276	380	5	1.1	0.9	1.0135	0.0008	0.0000	0.0000;
	766	1	-0	0	0	7.85	0	1.08970942	-12.8140439	220	5	1.1	0.9	1.0381	-0.0007	0.0000	0.0000;
	769	1	152.57	40	0	6.12	0	1.04007973	-9.08631133	220	5	1.1	0.9	1.0274	0.0068	0.0000	0.0000;
	772	1	343.9	141.9	0	5.55	0	1.07510747	-7.51201162	220	5	1.1	0.9	1.0149	0.0037	0.0000	0.0000;
	776	2	0	0	0	0	0	1.09014492	-5.37448515	220	5	1.1	0.9	1.0037	0.0000	0.0000	0.0000;
	778	2	0	0	0	0	0	1.09950236	-3.05686634	220	5	1.1	0.9	1.0000	-0.0000	0.0000	0.0000;
	789	1	-0	-0	0	6.63	0	1.09187622	-5.80023233	220	5	1.1	0.9	1.0042	0.0009	0.0000	0.0000;
	795	2	0	0	0	0	0	1.1	-0.850236191	220	5	1.1	0.9	1.0001	-0.0000	2.2410	0.0000;
	800	1	50.56	18	0	0.11	0	1.05782468	-10.6519726	220	5	1.1	0.9	1.0257	0.0045	0.0000	0.0000;
	803	2	0	0	0	0	0	1.1	-6.38251162	220	5	1.1	0.9	1.0000	-0.0000	1.7459	0.0000;
	804	1	-0	-0	0	7.26	0	1.1	-4.16446768	220	5	1.1	0.9	1.0015	-0.0017	24.0665	0.0000;
	805	1	124.5	29.6	0	15.4	0	1.098806	-6.53763011	220	5	1.1	0.9	1.0077	0.0011	0.0000	0.0000;
	809	1	0	-0	0	58.088687	0	1.03617298	-1.50901475	380	5	1.1	0.9	1.0013	0.0002	0.0000	0.0000;
	819	1	0	-0	0	0.22	0	1.08797371	-2.80797906	220	5	1.1	0.9	0.9991	-0.0001	0.0000	0.0000;
	823	2	0	0	0	0	0	1.0218156	0.595281973	380	5	1.1	0.9	1.0000	-0.0000	0.0000	0.0000;
	839	1	-0	-0	0	8.17514	0	1.03435296	-2.21483512	380	5	1.1	0.9	1.0035	0.0004	0.0000	0.0000;
	851	2	0	0	0	0	0	1.09984059	-1.48588234	220	5	1.1	0.9	1.0007	0.0001	0.0000	0.0000;
	858	2	0	0	0	0	0	1.03682874	-0.956160146	380	5	1.1	0.9	1.0000	-0.0000	0.0000	0.0000;
	870	1	110	3.4	0	11.95	0	1.08901869	-15.6776597	220	5	1.1	0.9	1.0411	-0.0000	0.0000	0.0000;
	871	1	108.89	-21.76	0	3.72	0	1.08806673	-3.43423436	220	5	1.1	0.9	1.0064	0.0001	0.0000	0.0000;
	883	1	192.5	78.3	0	6.65	0	1.06507653	-6.59306965	220	5	1.1	0.9	1.0180	0.0061	0.0000	0.0000;
	891	2	0	0	0	0	0	1.08559148	-4.09192534	380	5	1.1	0.9	1.0111	0.0000	0.0000	0.0000;
	892	1	-0	-0	0	9.1	0	1.07968262	-18.6148744	220	5	1.1	0.9	1.0539	0.0084	0.0000	0.0000;
	900	1	0	0	0	0.15	0	1.07940922	-6.29798012	220	5	1.1	0.9	1.0199	0.0012	0.0000	0.0000;
	903	1	82.69	20.1	0	1.36	0	1.09839553	-20.5373767	220	5	1.1	0.9	1.0282	-0.0891	0.0000	0.0000;
	905	1	631.71	-54.16	0	7.534129	0	1.07010721	-5.18461819	380	5	1.1	0.9	1.0064	-0.0002	0.0000	0.0000;
	907	1	-0	-0	0	0.05	0	1.09233964	-3.68795391	220	5	1.1	0.9	1.0001	-0.0000	0.0000	0.0000;
	908	1	125.9	-0.5	0	0.21	0	1.09255772	-1.50921628	220	5	1.1	0.9	0.9998	-0.0000	0.0000	0.0000;
	920	1	34.44	8.5	0	1.11	0	1.08935429	-12.9722365	220	5	1.1	0.9	1.0307	0.0006	0.0000	0.0000;
	923	1	62.07	14.7	0	4.84	0	1.056326	-16.9878889	220	5	1.1	0.9	1.0374	-0.0002	0.0000	0.0000;
	933	1	-0	0	0	22.75	0	1.07663136	-8.91438123	220	5	1.1	0.9	1.0247	0.0041	0.0000	0.0000;
	935	1	-0	0	0	9.46	0	1.09673213	-15.9991539	220	5	1.1	0.9	1.0337	0.0025	0.0000	0.0000;
	953	1	108.7	-12.15	0	37.11	0	1.05713697	-4.70263439	380	5	1.1	0.9	1.0133	0.0007	0.0000	0.0000;
	954	1	66.27	13.6	0	0.67	0	1.09421636	-11.9131843	220	5	1.1	0.9	1.0306	0.0016	0.0000	0.0000;
	960	1	-0	-0	0	108.728602	0	1.07706294	-0.774493558	380	5	1.1	0.9	1.0002	0.0000	0.0000	0.0000;
	964	1	88.5	16.5	0	146.44	0	1.05845047	-4.30322714	380	5	1.1	0.9	1.0104	0.0010	0.0000	0.0000;
	972	2	0	0	0	0	0	1.06550324	0.991576127	380	5	1.3	0.7	0.9941	-0.0000	0.0000	0.0000;
	980	1	14.71	4.6	0	7.88	0	1.09508546	-16.6122219	220	5	1.1	0.9	1.0378	0.0026	0.0000	0.0000;
	1001	2	0	0	0	0	0	1.0836908	-17.2804649	220	5	1.1	0.9	1.0455	0.0070	0.0000	0.0000;
	1002	2	0	0	0	0	0	1.08818552	-12.2972677	220	5	1.1	0.9	1.0285	0.0004	0.0000	0.0000;
	1005	1	0	0	0	0.81	0	1.09560409	-5.03662816	220	5	1.1	0.9	0.9988	-0.0000	0.0000	0.0000;
	1015	1	44.55	0	0	4.78	0	1.09852284	-5.08855107	220	5	1.1	0.9	1.0020	-0.0002	0.0000	0.0000;
	1026	1	201.4	53	0	9.67	0	1.07132481	-11.8946968	220	5	1.1	0.9	1.0331	0.0053	0.0000	0.0000;
	1027	1	-5.91	-2.33	0	30.393595	0	1.01160383	-11.8817973	380	5	1.1	0.9	1.0326	-0.0121	0.0000	0.0000;
	1033	1	26.33	5.3	0	4.31	0	1.08917221	-15.6046319	220	5	1.1	0.9	1.0412	-0.0002	0.0000	0.0000;
	1035	1	382.5	57.9	0	8.16	0	1.08390848	-18.9490803	220	5	1.1	0.9	1.0481	0.0013	0.0000	0.0000;
	1039	1	34.64	-0	0	0.91	0	1.08562115	-6.43086682	220	5	1.1	0.9	1.0088	0.0012	0.0000	0.0000;
	1040	1	31.94	8.8	0	3.79	0	1.0910724	-4.16906367	220	5	1.1	0.9	1.0021	0.0000	0.0000	0.0000;
	1043	2	0	0	0	0	0	1.07051519	-1.00435285	380	5	1.1	0.9	0.9999	-0.0000	0.0000	0.0000;
	1051	1	-0	0	0	3.79	0	1.09613182	-5.0415429	220	5	1.1	0.9	0.9991	-0.0000	0.0000	0.0000;
	1077	1	-0	0	0	0.1	0	1.05824297	-10.6195003	220	5	1.1	0.9	1.0253	0.0044	0.0000	0.0000;
	1078	1	-0	-0	0	4.74	0	1.09869833	-4.78765103	220	5	1.1	0.9	1.0000	-0.0000	0.0000	0.0000;
	1081	1	277.86	58.95	0	182.880644	0	1.08090597	-3.08929852	380	5	1.1	0.9	1.0060	-0.0014	0.0000	0.0000;
	1083	2	0	0	0	0	0	1.1	-4.92018082	220	5	1.1	0.9	1.0000	-0.0000	1.8734	0.0000;
	1090	1	56.06	18.7	0	4.24	0	1.02729524	-16.9266644	220	5	1.1	0.9	1.0400	0.0009	0.0000	0.0000;
	1093	2	0	0	0	0	0	1.07327719	-0.809009555	380	5	1.1	0.9	1.0001	-0.0000	0.0000	0.0000;
	1096	1	0	-0	0	0.16	0	1.08780609	-2.81876193	220	5	1.1	0.9	0.9992	-0.0000	0.0000	0.0000;
	1100	2	0	0	0	0	0	1.08915514	-3.32283503	220	5	1.1	0.9	1.0000	-0.0000	0.0000	0.0000;
	1101	1	-0	-0	0	2.05	0	1.08202207	-7.23955134	220	5	1.1	0.9	1.0133	0.0026	0.0000	0.0000;
	1102	2	0	0	0	0	0	1.07865307	1.36431238	220	5	1.1	0.9	1.0001	0.0000	0.0000	0.0000;
	1105	1	29.83	7.3	0	6.49	0	1.09925552	-20.4612791	220	5	1.1	0.9	1.0277	-0.0893	0.0000	0.0000;
	1111	1	0	0	0	1.1	0	1.06057647	-0.948920147	220	5	1.1	0.9	1.0130	0.0025	0.0000	0.0000;
	1129	1	190.47	55.03	0	6.7	0	1.02065154	-17.7390257	220	5	1.1	0.9	1.0452	0.0024	0.0000	0.0000;
	1136	1	16.22	2	0	0.71	0	1.07795017	-11.1524936	220	5	1.1	0.9	1.0209	0.0038	0.0000	0.0000;
	1137	1	-0	-0	0	0.05	0	1.09627162	-15.9608492	220	5	1.1	0.9	1.0345	0.0026	0.0000	0.0000;
	1146	1	32.84	-0	0	1.41	0	1.06151972	-7.21382635	220	5	1.1	0.9	1.0173	0.0057	0.0000	0.0000;
	1151	1	-0	-0	0	18.82	0	1.08770827	-12.8256636	220	5	1.1	0.9	1.0306	0.0005	0.0000	0.0000;
	1153	1	12.41	3.9	0	2.23	0	1.05199935	-5.00619656	220	5	1.1	0.9	1.0044	0.0037	0.0000	0.0000;
	1156	1	65.67	24	0	9.95	0	1.05981849	-16.4848136	220	5	1.1	0.9	1.0344	-0.0010	0.0000	0.0000;
	1159	1	112.4	13	0	3.99	0	1.06693642	-20.3219418	220	5	1.1	0.9	1.0660	0.0101	0.0000	0.0000;
	1172	1	-0	-0	0	2.3	0	1.09870463	-19.7244788	220	5	1.1	0.9	1.0267	-0.0843	0.0000	0.0000;
	1179	1	86.6	23.4	0	0.39	0	1.04235085	-6.41334204	220	5	1.1	0.9	1.0167	0.0037	0.0000	0.0000;
	1183	1	199.4	-19.9	0	6.68	0	1.08638594	-17.8143761	220	5	1.1	0.9	1.0497	0.0058	0.0000	0.0000;
	1187	1	67.57	21.2	0	5.71	0	1.07053179	-6.43905662	220	5	1.1	0.9	1.0105	0.0037	0.0000	0.0000;
	1188	1	30.93	6.6	0	9.09	0	1.09582034	-5.84427194	220	5	1.1	0.9	1.0038	-0.0012	0.0000	0.0000;
	1194	1	129.6	13.3	0	13.98	0	1.07257719	-4.15047248	380	5	1.1	0.9	1.0094	0.0002	0.0000	0.0000;
	1198	1	0	0	0	30.637696	0	1.04301716	-3.26242667	380	5	1.1	0.9	1.0097	0.0014	0.0000	0.0000;
	1201	1	114.1	23.5	0	1.08	0	1.09664373	-12.4516417	220	5	1.1	0.9	1.0254	-0.0085	0.0000	0.0000;
	1216	1	0	0	0	4.93	0	1.05454772	-8.86404735	220	5	1.1	0.9	1.0231	0.0036	0.0000	0.0000;
	1233	1	0	-0	0	1.72	0	1.05973334	-16.5078294	220	5	1.1	0.9	1.0346	-0.0010	0.0000	0.0000;
	1234	1	71.78	17.9	0	1.96	0	1.06409829	-9.60927234	220	5	1.1	0.9	1.0260	0.0033	0.0000	0.0000;
	1237	2	0	0	0	0	0	1.07668069	0.969699255	380	5	1.3	0.7	1.0000	-0.0000	0.0000	0.0000;
	1248	1	0	0	0	1.17	0	1.07938394	-8.55886054	220	5	1.1	0.9	1.0163	0.0043	0.0000	0.0000;
	1249	1	348.93	26.47	0	9.36	0	1.06857188	-5.31844281	380	5	1.1	0.9	1.0125	0.0000	0.0000	0.0000;
	1251	2	0	0	0	0	0	1.0730794	-0.868002433	380	5	1.1	0.9	1.0000	-0.0000	0.0000	0.0000;
	1262	1	-0	0	0	10.73	0	1.05983625	-16.0804663	220	5	1.1	0.9	1.0321	-0.0007	0.0000	0.0000;
	1265	1	173	-21.3	0	5.93	0	1.08792511	-32.9030696	220	5	1.1	0.9	1.1248	0.0025	0.0000	0.0000;
	1275	1	52.46	2.9	0	0.35	0	1.07515001	-12.2815387	220	5	1.1	0.9	1.0388	0.0019	0.0000	0.0000;
	1295	2	0	0	0	0	0	1.09927179	-3.08696772	220	5	1.1	0.9	1.0002	0.0000	0.0000	0.0000;
	1301	1	479	99.2	0	10.68	0	1.07361073	-14.9304361	220	5	1.1	0.9	1.0415	0.0019	0.0000	0.0000;
	1305	1	-0	-0	0	4.34	0	1.09146751	-8.41932612	220	5	1.1	0.9	1.0137	0.0001	0.0000	0.0000;
	1311	1	37.94	15.2	0	35.31	0	1.05127772	-9.35461047	380	5	1.1	0.9	1.0281	0.0003	0.0000	0.0000;
	1326	1	0	0	0	0.98	0	1.07983375	-18.615869	220	5	1.1	0.9	1.0539	0.0084	0.0000	0.0000;
	1334	1	0	0	0	0.59	0	1.06611667	-9.36488137	220	5	1.1	0.9	1.0239	0.0030	0.0000	0.0000;
	1341	2	0	0	0	0	0	1.08138367	-7.23540151	220	5	1.1	0.9	1.0133	0.0027	0.0000	0.0000;
	1343	1	-0	-0	0	58.3	0	1.04793758	-3.69643032	380	5	1.1	0.9	1.0103	0.0010	0.0000	0.0000;
	1354	2	0	0	0	0	0	1.0817337	-2.46775473	220	5	1.1	0.9	1.0007	0.0000	0.0000	0.0000;
	1355	1	-3.29	-1.32	0	190.704588	0	1.07901413	-2.91552543	380	5	1.1	0.9	1.0052	-0.0008	0.0000	0.0000;
	1364	1	40.85	14.5	0	0.59	0	1.07511072	-8.96803343	220	5	1.1	0.9	1.0196	0.0050	0.0000	0.0000;
	1380	1	145.2	21.4	0	1.09	0	1.08131183	-14.8300146	220	5	1.1	0.9	1.0417	-0.0055	0.0000	0.0000;
	1394	1	30.93	7.6	0	4.69	0	1.09914783	-20.4499593	220	5	1.1	0.9	1.0276	-0.0892	0.0000	0.0000;
	1397	1	0	-0	0	2.14	0	1.09687754	-5.02287155	220	5	1.1	0.9	0.9986	-0.0003	0.0000	0.0000;
	1398	1	196.7	44.2	0	0.1	0	1.06901596	-10.5927711	220	5	1.1	0.9	1.0332	0.0059	0.0000	0.0000;
	1401	1	11.91	2.9	0	5.27	0	1.07839654	-8.83454423	220	5	1.1	0.9	1.0187	0.0035	0.0000	0.0000;
	1414	1	144.7	20.3	0	6.35	0	1.05060306	-19.1873233	220	5	1.1	0.9	1.0587	-0.0037	0.0000	0.0000;
	1415	1	0	-0	0	0.3	0	1.07989252	-4.04215996	220	5	1.1	0.9	1.0019	0.0010	0.0000	0.0000;
	1422	2	0	0	0	0	0	1.09997719	-6.27351414	220	5	1.1	0.9	1.0000	-0.0000	0.0000	0.0000;
	1435	1	-0	0	0	3.85	0	1.05992287	-16.6912403	220	5	1.1	0.9	1.0483	-0.0015	0.0000	0.0000;
	1436	2	0	0	0	0	0	1.09653317	-5.0082701	220	5	1.1	0.9	0.9985	-0.0002	0.0000	0.0000;
	1448	1	0	0	0	9.49	0	1.0797282	-9.17740148	220	5	1.1	0.9	1.0125	0.0006	0.0000	0.0000;
	1459	1	-0	-0	0	3.38	0	1.09303737	-12.1801094	220	5	1.1	0.9	1.0313	0.0017	0.0000	0.0000;
	1462	1	-0	0	0	0.42	0	1.1	-6.27402431	220	5	1.1	0.9	1.0000	-0.0000	0.5043	0.0000;
	1465	1	-11.03	-5.11	0	29.706803	0	1.00881198	-10.1949252	380	5	1.1	0.9	1.0308	-0.0018	0.0000	0.0000;
	1478	2	0	0	0	0	0	1.08989135	-4.84434083	220	5	1.1	0.9	1.0000	-0.0000	0.0000	0.0000;
	1483	1	0	0	0	4.86	0	1.07764321	-12.6358861	220	5	1.1	0.9	1.0213	0.0021	0.0000	0.0000;
	1486	1	79.59	18.8	0	6.78	0	1.05634084	-17.2648594	220	5	1.1	0.9	1.0389	-0.0007	0.0000	0.0000;
	1494	1	-1.85	-1.63	0	31.424588	0	1.06984748	-3.09888067	380	5	1.1	0.9	1.0011	-0.0002	0.0000	0.0000;
	1502	1	-0	0	0	37.116157	0	1.04827658	-11.9994446	380	5	1.1	0.9	1.0394	0.0056	0.0000	0.0000;
	1504	1	0	-0	0	1.84	0	1.05157393	-11.8091384	220	5	1.1	0.9	1.0357	0.0062	0.0000	0.0000;
	1526	1	-10.86	-5.93	0	12.54	0	1.06426303	-10.1525086	220	5	1.1	0.9	1.0210	0.0031	0.0000	0.0000;
	1538	1	36.34	15.2	0	0.3	0	1.06074238	-9.00137101	220	5	1.1	0.9	1.0196	0.0031	0.0000	0.0000;
	1539	1	73.58	3.24	0	52.35	0	1.09803578	-5.78143334	220	5	1.1	0.9	1.0019	-0.0014	0.0000	0.0000;
	1541	1	125.4	45.8	0	0	0	1.1	-2.75560895	220	5	1.1	0.9	1.0007	-0.0019	9.0949	0.0000;
	1545	1	42.55	8.2	0	2.06	0	1.06799277	-16.6877202	220	5	1.1	0.9	1.0384	-0.0082	0.0000	0.0000;
	1547	1	-0	-0	0	1.02	0	1.08111445	-6.46373344	220	5	1.1	0.9	1.0096	0.0018	0.0000	0.0000;
	1551	1	-0	-0	0	7.99	0	1.06657181	-14.6017106	220	5	1.1	0.9	1.0319	-0.0027	0.0000	0.0000;
	1552	1	20.42	8.1	0	35.15	0	1.0735349	-4.78989576	380	5	1.1	0.9	1.0113	0.0004	0.0000	0.0000;
	1554	1	0	-0	0	4.96	0	1.05064891	-12.6706472	220	5	1.1	0.9	1.0354	0.0068	0.0000	0.0000;
	1556	1	-0	-0	0	0.95	0	1.09673545	-4.09363435	220	5	1.1	0.9	0.9939	-0.0003	0.0000	0.0000;
	1562	1	77.39	24.1	0	2.67	0	1.09047365	-17.2668246	220	5	1.1	0.9	1.0402	0.0035	0.0000	0.0000;
	1566	1	156.9	-4	0	2.48	0	1.06211976	-17.932991	220	5	1.1	0.9	1.0452	-0.0073	0.0000	0.0000;
	1568	1	69.08	21.5	0	1.65	0	1.09479371	-16.6271241	220	5	1.1	0.9	1.0381	0.0027	0.0000	0.0000;
	1578	1	0	-0	0	1.38	0	1.06299744	-10.9995632	220	5	1.1	0.9	1.0261	0.0031	0.0000	0.0000;
	1584	1	0	-0	0	3.24	0	1.0948714	-5.26146771	220	5	1.1	0.9	1.0004	0.0002	0.0000	0.0000;
	1592	1	28.33	44.8	0	0.51	0	1.06076439	-3.64465763	220	5	1.1	0.9	0.9999	0.0018	0.0000	0.0000;
	1595	1	71.77	13.57	0	3.84	0	1.04405687	-20.5026177	220	5	1.1	0.9	1.0656	-0.0028	0.0000	0.0000;
	1604	2	0	0	0	0	0	1.08217107	-2.24665071	220	5	1.1	0.9	1.0000	-0.0000	0.0000	0.0000;
	1605	1	-0	0	0	0.05	0	1.09973853	-10.0442852	220	5	1.1	0.9	1.0144	0.0008	0.0000	0.0000;
	1607	1	73.78	-0	0	2.69	0	1.0601602	-3.30384604	380	5	1.1	0.9	1.0035	-0.0001	0.0000	0.0000;
	1609	1	0	0	0	6.55	0	1.09972588	-11.1385943	220	5	1.1	0.9	1.0255	0.0006	0.0000	0.0000;
	1625	1	73.18	22.3	0	8.77	0	1.08958025	-12.8123795	220	5	1.1	0.9	1.0381	-0.0006	0.0000	0.0000;
	1629	1	41.95	8.5	0	1.05	0	1.06653401	-9.27039756	220	5	1.1	0.9	1.0169	0.0032	0.0000	0.0000;
	1642	2	0	0	0	0	0	1.03513078	-1.33192233	380	5	1.1	0.9	1.0012	0.0002	0.0000	0.0000;
	1643	1	95.71	25.9	0	11.38	0	1.09052556	-17.297536	220	5	1.1	0.9	1.0402	0.0034	0.0000	0.0000;
	1644	1	449.56	245.72	0	94.55	0	1.05931388	-0.832574917	380	5	1.1	0.9	0.9975	0.0005	0.0000	0.0000;
	1662	1	3.67	-1.86	0	3.89	0	1.09006158	-13.0022805	220	5	1.1	0.9	1.0308	0.0002	0.0000	0.0000;
	1672	1	-28.13	-0.83	0	0.1	0	1.09693291	-4.0813282	220	5	1.1	0.9	0.9938	-0.0004	0.0000	0.0000;
	1680	2	0	0	0	0	0	1.0218552	0.754704051	380	5	1.1	0.9	1.0000	-0.0000	0.0000	0.0000;
	1692	1	83.19	25.8	0	0.33	0	1.06825339	-9.54224237	220	5	1.1	0.9	1.0191	0.0026	0.0000	0.0000;
	1704	1	62.16	8	0	2.99	0	1.07880566	-8.91073914	220	5	1.1	0.9	1.0123	0.0005	0.0000	0.0000;
	1708	2	0	0	0	0	0	1.07337591	-2.97395897	380	5	1.1	0.9	1.0061	0.0000	0.0000	0.0000;
	1709	1	-15.38	-4.94	0	33.241519	0	1.04587219	-7.8840025	380	5	1.1	0.9	1.0224	0.0021	0.0000	0.0000;
	1711	1	25.13	-61.6	0	3.68	0	1.09808906	-19.6228133	220	5	1.1	0.9	1.0652	-0.0003	0.0000	0.0000;
	1721	2	0	0	0	0	0	1.08397402	-3.15070542	220	5	1.1	0.9	1.0000	-0.0000	0.0000	0.0000;
	1730	1	-17.18	-4.35	0	44.419365	0	1.02456415	-7.44082513	380	5	1.1	0.9	1.0219	0.0022	0.0000	0.0000;
	1742	1	0	0	0	6.68	0	1.0556959	-16.5847962	220	5	1.1	0.9	1.0538	0.0067	0.0000	0.0000;
	1746	1	-0	0	0	1.86	0	1.09681349	-15.6500145	220	5	1.1	0.9	1.0330	0.0026	0.0000	0.0000;
	1750	1	58.46	6.6	0	10.13	0	1.07045792	-12.7029423	220	5	1.1	0.9	1.0347	0.0000	0.0000	0.0000;
	1754	2	0	0	0	0	0	1.0565897	-5.05643019	380	5	1.1	0.9	1.0125	-0.0005	0.0000	0.0000;
	1758	1	0	-0	0	121.29	0	1.01889887	-1.66340891	380	5	1.1	0.9	1.0060	-0.0002	0.0000	0.0000;
	1763	1	-0	-0	0	0.28	0	1.05302426	-15.8646876	380	5	1.1	0.9	1.0494	0.0051	0.0000	0.0000;
	1767	1	333.5	-1.4	0	8.37	0	1.06563068	-28.8205179	220	5	1.1	0.9	1.1134	0.0094	0.0000	0.0000;
	1768	1	73.98	22.5	0	1.15	0	1.07523662	-8.9951661	220	5	1.1	0.9	1.0192	0.0052	0.0000	0.0000;
	1775	1	-0	0	0	1.64	0	1.09674639	-7.66509026	220	5	1.1	0.9	1.0078	0.0001	0.0000	0.0000;
	1794	2	0	0	0	0	0	1.02007202	1.05208212	380	5	1.1	0.9	1.0000	-0.0000	0.0000	0.0000;
	1798	1	-0.63	-0.83	0	22.810288	0	1.00885972	-6.83248631	380	5	1.1	0.9	1.0202	0.0072	0.0000	0.0000;
	1803	1	-0	-0	0	0.05	0	1.06011729	-16.082501	220	5	1.1	0.9	1.0321	-0.0007	0.0000	0.0000;
	1808	2	0	0	0	0	0	1.0855772	-3.00720467	220	5	1.1	0.9	1.0000	-0.0000	0.0000	0.0000;
	1813	1	88.92	19.79	0	2.81	0	1.06606522	-5.00347011	220	5	1.1	0.9	1.0121	0.0025	0.0000	0.0000;
	1817	1	108.91	33.7	0	56.24	0	1.06020534	-4.22900355	380	5	1.1	0.9	1.0117	0.0005	0.0000	0.0000;
	1833	1	0	0	0	3.33	0	1.0610571	-15.2672179	220	5	1.1	0.9	1.0347	-0.0060	0.0000	0.0000;
	1838	1	0	-0	0	3.02	0	1.06190972	-15.1874434	220	5	1.1	0.9	1.0343	-0.0055	0.0000	0.0000;
	1844	1	-28.14	-0.76	0	0.1	0	1.09695056	-4.08080965	220	5	1.1	0.9	0.9938	-0.0004	0.0000	0.0000;
	1851	2	0	0	0	0	0	1.09654535	-5.00849544	220	5	1.1	0.9	0.9985	-0.0002	0.0000	0.0000;
	1852	2	0	0	0	0	0	1.09979394	-5.77102342	220	5	1.1	0.9	1.0007	0.0000	0.0000	0.0000;
	1857	1	0	0	0	1.53	0	1.09487138	-3.12281996	220	5	1.1	0.9	1.0000	0.0000	0.0000	0.0000;
	1860	1	88.8	-3.2	0	13.63	0	1.1	-9.15650038	220	5	1.1	0.9	1.0157	-0.0011	24.0167	0.0000;
	1866	1	209.2	23.5	0	6.44	0	1.06806569	-12.4400536	220	5	1.1	0.9	1.0306	0.0065	0.0000	0.0000;
	1868	1	11.71	3.8	0	2.96	0	1.09781443	-2.14326296	220	5	1.1	0.9	1.0062	0.0006	0.0000	0.0000;
	1876	1	-0	-0	0	6.273568	0	1.06627048	-4.0844495	380	5	1.1	0.9	1.0096	0.0011	0.0000	0.0000;
	1883	1	27.33	5	0	6.77	0	1.07175355	-9.32048925	220	5	1.1	0.9	1.0232	0.0028	0.0000	0.0000;
	1888	2	0	0	0	0	0	1.06905218	-3.75910942	220	5	1.1	0.9	1.0000	0.0000	0.0000	0.0000;
	1895	1	20.82	-0	0	0.14	0	1.07184059	1.84514736	220	5	1.1	0.9	0.9977	-0.0000	0.0000	0.0000;
	1896	1	-0	-0	0	1.18	0	1.05073903	-2.72672589	380	5	1.1	0.9	1.0049	-0.0038	0.0000	0.0000;
	1910	1	-0	0	0	2.68	0	1.09955867	-3.05762667	220	5	1.1	0.9	1.0000	-0.0000	0.0000	0.0000;
	1914	2	0	0	0	0	0	1.09734857	-6.2074525	220	5	1.1	0.9	1.0000	-0.0000	0.0000	0.0000;
	1917	1	197.5	-31	0	17.34	0	1.09811367	-16.6062405	220	5	1.1	0.9	1.0364	0.0019	0.0000	0.0000;
	1923	1	192.11	45.5	0	68.04	0	1.01078815	-7.58353994	380	5	1.1	0.9	1.0215	-0.0028	0.0000	0.0000;
	1940	1	0	0	0	1.19	0	1.07452896	-8.0968627	220	5	1.1	0.9	1.0106	0.0011	0.0000	0.0000;
	1959	2	0	0	0	0	0	1.09555069	-4.08456436	220	5	1.1	0.9	0.9939	-0.0000	0.0000	0.0000;
	1965	1	248.7	8.1	0	12.46	0	1.08845801	-32.4976942	220	5	1.1	0.9	1.1199	0.0032	0.0000	0.0000;
	1973	1	210.1	66.2	0	59.36	0	1.09922585	-20.4365193	220	5	1.1	0.9	1.0275	-0.0892	0.0000	0.0000;
	1979	1	0	0	0	0.14	0	1.08369224	-17.2804697	220	5	1.1	0.9	1.0455	0.0070	0.0000	0.0000;
	1980	1	177.3	36.4	0	0.7	0	1.08499431	-13.5725017	220	5	1.1	0.9	1.0343	0.0014	0.0000	0.0000;
	1998	1	25.73	7.3	0	2.82	0	1.06750006	-13.5957122	220	5	1.1	0.9	1.0413	-0.0000	0.0000	0.0000;
	2012	1	41.45	4.9	0	18.43	0	1.07220142	-12.2180381	220	5	1.1	0.9	1.0307	0.0001	0.0000	0.0000;
	2019	1	72.08	21.3	0	7.19	0	1.08850423	-13.2577229	220	5	1.1	0.9	1.0323	0.0006	0.0000	0.0000;
	2020	1	0	0	0	9.98	0	1.09861055	-15.6573855	220	5	1.1	0.9	1.0330	0.0024	0.0000	0.0000;
	2021	1	3.9	1	0	3.81	0	1.09770042	-16.4528332	220	5	1.1	0.9	1.0356	0.0022	0.0000	0.0000;
	2035	2	0	0	0	0	0	1.03844779	-0.996910298	380	5	1.1	0.9	1.0000	-0.0000	0.0000	0.0000;
	2042	1	14.02	6.5	0	0.09	0	1.06056764	-5.79060048	220	5	1.1	0.9	1.0084	0.0021	0.0000	0.0000;
	2043	1	3.2	1.7	0	0.05	0	1.09996416	-6.2743908	220	5	1.1	0.9	1.0000	0.0000	0.0000	0.0000;
	2044	1	0	0	0	0.14	0	1.08823702	-4.77813297	220	5	1.1	0.9	1.0083	0.0011	0.0000	0.0000;
	2050	2	0	0	0	0	0	1.06896018	0.831659917	380	5	1.1	0.9	0.9954	-0.0000	0.0000	0.0000;
	2056	1	-0	0	0	7.338808	0	1.07132729	-2.40271868	380	5	1.1	0.9	1.0043	0.0001	0.0000	0.0000;
	2057	1	120.2	20.5	0	19.94	0	1.09513041	-20.4694531	220	5	1.1	0.9	1.0712	-0.0005	0.0000	0.0000;
	2072	1	101.2	2.1	0	38.43	0	1.08139367	-3.17519256	380	5	1.1	0.9	1.0052	0.0000	0.0000	0.0000;
	2078	1	77.19	18.6	0	2.22	0	1.0788507	-6.95946011	220	5	1.1	0.9	1.0153	0.0020	0.0000	0.0000;
	2079	1	0	-0	0	13.94	0	1.08896168	-6.44022545	220	5	1.1	0.9	1.0086	0.0010	0.0000	0.0000;
	2083	1	121.4	20.2	0	16.61	0	1.0781512	-11.1007672	220	5	1.1	0.9	1.0206	0.0037	0.0000	0.0000;
	2085	2	0	0	0	0	0	1.03531897	-1.55752207	380	5	1.1	0.9	1.0019	-0.0000	0.0000	0.0000;
	2088	1	-0	0	0	6.02	0	1.09536765	-6.94301933	220	5	1.1	0.9	1.0101	0.0014	0.0000	0.0000;
	2089	1	199.86	56.93	0	46.83	0	1.09131126	-17.1900272	220	5	1.1	0.9	1.0393	0.0033	0.0000	0.0000;
	2093	1	-5.64	-2.84	0	34.582195	0	1.05080969	-4.17641447	380	5	1.1	0.9	1.0062	0.0012	0.0000	0.0000;
	2101	1	-0	-0	0	38.32	0	1.07410322	-1.93691292	380	5	1.1	0.9	1.0027	-0.0002	0.0000	0.0000;
	2128	1	79.09	18.7	0	10.8	0	1.05658949	-16.9496461	220	5	1.1	0.9	1.0368	-0.0003	0.0000	0.0000;
	2129	1	0	0	0	56.686515	0	1.06621	-1.49814222	380	5	1.1	0.9	1.0015	-0.0002	0.0000	0.0000;
	2132	1	107.3	14.2	0	20.23	0	1.08312287	-8.4716177	220	5	1.1	0.9	1.0165	0.0028	0.0000	0.0000;
	2142	1	0	-0	0	7.63	0	1.09609878	-4.33515164	220	5	1.1	0.9	1.0024	-0.0009	0.0000	0.0000;
	2155	1	63.67	20.2	0	6.13	0	1.06067453	-5.78114693	220	5	1.1	0.9	1.0084	0.0021	0.0000	0.0000;
	2161	1	35.66	-9.39	0	7.89	0	1.08885915	-10.6585813	220	5	1.1	0.9	1.0236	0.0015	0.0000	0.0000;
	2166	1	20.92	7.7	0	1.21	0	1.08965276	-4.93426773	220	5	1.1	0.9	1.0001	-0.0006	0.0000	0.0000;
	2174	1	0	0	0	61.795782	0	1.05371243	-5.94999757	380	5	1.1	0.9	1.0132	0.0012	0.0000	0.0000;
	2177	2	0	0	0	0	0	1.1	-8.91133632	220	5	1.1	0.9	1.0060	-0.0017	32.4110	0.0000;
	2183	1	0	0	0	32.849821	0	1.02682943	-10.0092734	380	5	1.1	0.9	1.0284	-0.0008	0.0000	0.0000;
	2189	1	-0	0	0	0.18	0	1.09922577	-3.06761765	220	5	1.1	0.9	1.0000	-0.0000	0.0000	0.0000;
	2197	2	0	0	0	0	0	1.07329585	-1.7894215	380	5	1.1	0.9	1.0016	-0.0001	0.0000	0.0000;
	2208	1	74.98	26.9	0	2.96	0	1.08145821	-4.93340683	220	5	1.1	0.9	1.0144	0.0011	0.0000	0.0000;
	2229	1	0	-0	0	2.91	0	1.1	-4.87794415	220	5	1.1	0.9	0.9999	-0.0067	55.9312	0.0000;
	2230	1	0	-0	0	1.71	0	1.06120257	-15.2684484	220	5	1.1	0.9	1.0347	-0.0061	0.0000	0.0000;
	2231	1	0	0	0	0.45	0	1.08376918	-3.15175374	220	5	1.1	0.9	1.0000	-0.0000	0.0000	0.0000;
	2242	1	-0	-0	0	2.76	0	1.06321232	-9.23106489	220	5	1.1	0.9	1.0178	0.0035	0.0000	0.0000;