function mpc = case1888rte_solved
%CASE1888RTE_SOLVED

%% MATPOWER Case Format : Version 2
mpc.version = '2';

%%-----  Power Flow Data  -----%%
%% system MVA base
mpc.baseMVA = 100;

%% bus data
%	bus_i	type	Pd	Qd	Gs	Bs	area	Vm	Va	baseKV	zone	Vmax	Vmin	lam_P	lam_Q	mu_Vmax	mu_Vmin
mpc.bus = [
	1	1	5.8	-5.8	0	0	1	1.03582867	-20.70626	225	1	1.08889	0.888889	1.0132	-0.0078	0.0000	0.0000;
	2	1	0	0	0	0	1	1.05582081	-0.558478142	380	1	1.10263	1.04841	1.0070	-0.0039	0.0000	0.0000;
	3	1	142.5	-13.4	0	0	1	1.04728543	1.80565265	225	1	1.08444	1.00444	1.1233	-0.1157	0.0000	0.0000;
	4	1	0	0	0	0	1	1.0530298	-13.3352764	150	1	1.10667	0.9	1.0043	0.0022	0.0000	0.0000;
	5	1	32.8	-5.3	0	0	1	1.06288429	-14.2337546	225	1	1.08889	0.933333	1.0048	0.0033	0.0000	0.0000;
	6	1	40.2	4	0	0	1	1.06052355	-14.7835669	225	1	1.08889	0.933333	1.0059	0.0029	0.0000	0.0000;
	7	1	0	0	0	0	1	1.04278615	-12.4804088	380	1	1.10526	1.03947	1.0108	-0.0034	0.0000	0.0000;
	8	1	0	0	0	0	1	1.05767987	-12.2477173	380	1	1.10526	1.03947	1.0076	0.0072	0.0000	0.0000;
	9	1	0	0	0	0	1	1.05070012	-16.4512734	225	1	1.09035	1.00444	0.9847	-0.0659	0.0000	0.0000;
	10	1	148.8	14.9	0	0	1	1.04602091	-18.7003768	225	1	1.08889	0.933333	1.0210	-0.0075	0.0000	0.0000;
	11	1	25.6	5	0	0	1	1.04407886	-18.3993219	225	1	1.08889	1.00444	1.0214	0.0199	0.0000	0.0000;
	12	1	39.1	8.7	0	0	1	1.02156722	-19.5382787	225	1	1.08889	1.00444	1.0036	-0.0183	0.0000	0.0000;
	13	1	70.5	17.2	0	0	1	1.04406351	-18.3964626	225	1	1.08889	1.00444	1.0213	0.0200	0.0000	0.0000;
	14	1	36	-4.2	0	0	1	1.03451798	-19.0279674	225	1	1.08252	0.95	1.0102	-0.0006	0.0000	0.0000;
	15	1	0	0	0	0	1	1.04763065	-10.6989763	225	1	1.08889	1.00444	1.0017	-0.0007	0.0000	0.0000;
	16	1	0	0	0	0	1	1.04763105	-10.6989791	225	1	1.08889	1.00444	1.0017	-0.0007	0.0000	0.0000;
	17	1	23.7	-12.4	0	0	1	1.03402091	-19.1886253	225	1	1.08889	0.888889	1.0111	-0.0005	0.0000	0.0000;
	18	1	5.9	-4.8	0	0	1	1.03460762	-19.0200064	225	1	1.09633	0.986667	1.0064	-0.0000	0.0000	0.0000;
	19	1	34	3.7	0	0	1	1.03528527	-19.0229457	225	1	1.08889	1.00444	1.0089	-0.0099	0.0000	0.0000;
	20	1	6.9	0.8	0	0	1	1.0353119	-19.0206444	225	1	1.08889	1.00444	1.0088	-0.0099	0.0000	0.0000;
	21	1	9.2	-29.1	0	0	1	1.04659065	-14.8281571	225	1	1.08889	1.00444	1.0108	-0.0044	0.0000	0.0000;
	22	1	67.7	-3.6	0	0	1	1.04094938	-21.6471009	225	1	1.08889	0.986667	1.0186	-0.0047	0.0000	0.0000;
	23	1	25.4	-2.7	0	0	1	1.0259789	-22.8900476	225	1	1.08889	0.888889	1.0268	-0.0009	0.0000	0.0000;
	25	1	64	4.6	0	0	1	1.06129494	-15.1773344	225	1	1.08444	1.00889	1.0527	-0.0067	0.0000	0.0000;
	27	1	71.6	46.7	0	0	1	1.01868771	-13.0713154	225	1	1.08889	0.933333	1.0164	-0.0005	0.0000	0.0000;
	28	1	105.4	6.9	0	0	1	1.04028839	-16.1140107	225	1	1.08889	1.00444	0.9807	-0.0698	0.0000	0.0000;
	29	1	0	0	0	0	1	1.05577304	-0.542303687	380	1	1.10526	1.04842	1.0069	-0.0039	0.0000	0.0000;
	30	1	0	0	0	0	1	1.05580263	-0.52276014	380	1	1.10526	1.04842	1.0068	-0.0038	0.0000	0.0000;
	31	1	21.7	0.9	0	0	1	1.04991045	-3.26718424	225	1	1.08444	1.00889	1.0129	-0.0107	0.0000	0.0000;
	33	1	68.9	2.6	0	0	1	1.04338549	-4.2618666	225	1	1.08444	1.00889	1.0139	-0.0018	0.0000	0.0000;
	34	1	50.6	12.7	0	0	1	1.04396768	-18.3139587	225	1	1.08889	1.00444	1.0205	0.0202	0.0000	0.0000;
	35	1	17	2.1	0	0	1	1.03410793	-13.8299676	150	1	1.08	0.966667	1.0278	0.0030	0.0000	0.0000;
	36	1	38.2	6.3	0	0	1	1.06196252	-14.5179589	225	1	1.09212	1	1.1909	0.0375	0.0000	0.0000;
	37	1	0	0	0	0	1	1.06881284	-11.9828605	380	1	1.10526	1.04785	1.1860	0.0379	0.0000	0.0000;
	38	1	89	9.6	0	0	1	1.03044481	-23.0326744	225	1	1.08889	0.986667	1.0342	-0.0057	0.0000	0.0000;
	2050	1	0	0	0	-64	1	1.02966312	-19.6176964	20	1	1.5	0.8	1.0092	0.0024	0.0000	0.0000;
	39	1	70.9	-2.3	0	0	1	1.03377387	-18.9913474	225	1	1.08889	0.968889	1.0102	-0.0003	0.0000	0.0000;
	40	1	136.2	-10.7	0	0	1	1.03859739	-16.216921	380	1	1.10526	1	1.0106	-0.0002	0.0000	0.0000;
	41	1	64.6	17.3	0	0	1	1.04055898	-16.9992734	225	1	1.08889	0.933333	1.0069	-0.0189	0.0000	0.0000;
	42	1	13.4	3.3	0	0	1	1.03113355	-22.5351306	225	1	1.08889	0.888889	1.0240	-0.0012	0.0000	0.0000;
	43	1	33.3	4.7	0	0	1	1.03095992	-22.5788793	225	1	1.08889	0.888889	1.0242	-0.0011	0.0000	0.0000;
	44	1	211.6	-1.3	0	0	1	1.05769203	-4.22962276	225	1	1.08496	1.00444	1.0663	-0.0251	0.0000	0.0000;
	45	1	92.1	-9.1	0	0	1	1.04920104	-15.9432241	225	1	1.08889	1.00444	1.0165	-0.0058	0.0000	0.0000;
	46	2	0	0	0	0	1	1.07117391	5.8563825	150	1	1.10843	0.9	1.0590	-0.0046	0.0000	0.0000;
	47	1	0	0	0	0	1	1.02803565	-18.7651476	225	1	1.08889	1.00444	0.9987	-0.0165	0.0000	0.0000;
	48	1	0	0	0	0	1	1.02803543	-18.7651464	225	1	1.08889	1.00444	0.9987	-0.0165	0.0000	0.0000;
	49	1	63.7	84.5	0	-80	1	1.0280342	-18.7651394	225	1	1.08889	1.00444	0.9987	-0.0165	0.0000	0.0000;
	50	1	10.4	6.6	0	0	1	1.0393878	-16.4544453	225	1	1.08889	1.00444	0.9815	-0.0700	0.0000	0.0000;
	51	1	0	0	0	0	1	1.0394045	-4.48268001	225	1	1.08889	1	1.0830	-0.0360	0.0000	0.0000;
	52	1	68.7	16.5	0	0	1	1.02343098	-23.0643568	225	1	1.08889	0.888889	1.0268	-0.0006	0.0000	0.0000;
	53	1	101.2	15.9	0	0	1	1.01688116	-20.7356813	225	1	1.08889	0.968889	1.0185	0.0038	0.0000	0.0000;
	54	1	0	0	0	0	1	1.01895474	-18.8929943	380	1	1.10526	1	1.0165	0.0030	0.0000	0.0000;
	55	1	28.9	10.6	0	0	1	1.03578898	-3.70819863	225	1	1.08444	1.00889	1.0121	-0.0009	0.0000	0.0000;
	56	1	28.2	2.1	0	0	1	1.03597715	-3.70959269	225	1	1.08444	1.00889	1.0121	-0.0010	0.0000	0.0000;
	1827	1	109.6	-12.9	0	0	1	1.04565898	-12.216703	225	1	1.08889	1.00444	1.0615	-0.0202	0.0000	0.0000;
	57	1	27.3	-10.9	0	0	1	1.05604944	-4.94518525	225	1	1.08945	0.933333	1.0151	-1.3874	0.0000	0.0000;
	58	2	0	0	0	0	1	1.06979708	5.63817386	150	1	1.10862	0.9	1.0619	-0.0047	0.0000	0.0000;
	59	1	36.8	20.3	0	0	1	1.03998032	-1.23537591	225	1	1.08444	1.00889	1.0010	0.0001	0.0000	0.0000;
	60	1	36.5	30.8	0	0	1	1.03981163	-1.23335658	225	1	1.08444	1.00889	1.0010	0.0002	0.0000	0.0000;
	61	1	0	0	0	0	1	1.04088517	-1.57195541	225	1	1.08889	0.977778	1.0020	-0.0000	0.0000	0.0000;
	62	1	8.4	-0.3	0	0	1	1.03182343	-20.6866014	225	1	1.08889	0.888889	1.0149	-0.0016	0.0000	0.0000;
	63	1	13.2	-6.3	0	0	1	1.07290005	-13.798038	225	1	1.08889	0.933333	1.0037	0.0001	0.0000	0.0000;
	64	1	13.2	3.3	0	0	1	1.02111189	-19.6756073	225	1	1.08889	1.00444	1.0042	-0.0183	0.0000	0.0000;
	65	1	22.7	2.5	0	0	1	1.05081299	-16.5012491	225	1	1.08889	1.00444	0.9852	-0.0662	0.0000	0.0000;
	66	1	11.4	-9.7	0	0	1	1.04190129	-4.76685938	225	1	1.08889	1	1.0848	-0.0374	0.0000	0.0000;
	67	1	10.2	-1.3	0	0	1	1.04496601	-16.8565188	225	1	1.08889	0.986667	0.9616	-0.1073	0.0000	0.0000;
	68	1	0	0	0	0	1	1.03331147	-22.3153977	225	1	1.08889	0.888889	1.0224	-0.0017	0.0000	0.0000;
	69	1	0	0	0	0	1	1.02793031	-22.5753417	225	1	1.08889	0.888889	1.0243	-0.0013	0.0000	0.0000;
	70	1	0	0	0	0	1	1.0358926	-20.8384404	380	1	1.10526	1.01316	1.0214	-0.0014	0.0000	0.0000;
	71	1	39.2	2.8	0	0	1	1.03616123	-19.1944747	225	1	1.08889	1.00444	1.0094	-0.0103	0.0000	0.0000;
	72	1	19.3	3.3	0	-80	1	1.03483377	-18.576541	225	1	1.08889	1.00444	1.0051	-0.0191	0.0000	0.0000;
	73	1	0	0	0	0	1	1.04208075	-3.51754387	225	1	1.08889	0.977778	1.0135	-0.0073	0.0000	0.0000;
	74	1	0	0	0	0	1	1.04208177	-3.51660439	225	1	1.08889	0.977778	1.0134	-0.0073	0.0000	0.0000;
	75	1	131.9	3.2	0	0	1	1.04114949	-3.9991194	225	1	1.08444	1.00889	1.0154	-0.0068	0.0000	0.0000;
	76	1	0	0	0	0	1	1.05338619	-0.0499116115	225	1	1.08444	1.00444	1.0779	-0.0515	0.0000	0.0000;
	77	1	0	0	0	0	1	1.04925449	4.81570454	380	1	1.10263	1.04211	1.0738	-0.0207	0.0000	0.0000;
	78	1	94.6	-1.9	0	0	1	1.05330434	-0.0989155863	225	1	1.08444	1.00444	1.0782	-0.0519	0.0000	0.0000;
	79	1	-1.7	-4.6	0	0	1	1.02206651	-19.4423429	225	1	1.08936	1.00444	1.0028	-0.0183	0.0000	0.0000;
	80	1	3.6	-7.2	0	0	1	1.02206673	-19.4464414	225	1	1.08936	1.00444	1.0029	-0.0183	0.0000	0.0000;
	81	1	35.4	10.9	0	0	1	1.03026792	-20.7586626	225	1	1.08889	0.888889	1.0162	0.0047	0.0000	0.0000;
	82	1	15.1	0.7	0	0	1	1.03031195	-21.1618004	225	1	1.08124	0.95	1.0191	-0.0010	0.0000	0.0000;
	83	1	57.4	18	0	0	1	1.03288207	-19.0515745	225	1	1.08889	0.888889	1.0100	0.0012	0.0000	0.0000;
	84	1	89.9	-5.8	0	0	1	1.05120006	-1.54306165	225	1	1.08889	1	1.1272	0.0164	0.0000	0.0000;
	85	1	0	0	0	0	1	1.03567355	-7.5819041	225	1	1.08889	1	1.0745	-0.0334	0.0000	0.0000;
	86	1	239.8	17.5	0	0	1	1.07409207	-7.56924498	380	1	1.10526	1.0507	1.0745	-0.0332	0.0000	0.0000;
	87	1	35.5	16	0	0	1	1.05729383	-7.95088312	225	1	1.08889	1	1.0523	-0.0322	0.0000	0.0000;
	88	1	76.1	23	0	0	1	1.05688701	-5.52675002	225	1	1.08889	1	1.0861	-0.0473	0.0000	0.0000;
	89	2	0	0	0	0	1	1.02064096	-9.32566077	150	1	1.1	0.9	1.0378	-0.0000	0.0000	0.0000;
	90	1	21.3	12	0	0	1	1.02078942	-18.4895165	225	1	1.08889	0.986667	1.0044	-0.0218	0.0000	0.0000;
	91	1	11.2	-5.2	0	0	1	1.03497094	-5.39014074	225	1	1.08444	1.00889	1.0051	-0.0568	0.0000	0.0000;
	92	1	0	0	0	0	1	1.04643241	-10.3496741	380	1	1.10526	1.04211	1.0028	-0.0004	0.0000	0.0000;
	93	1	0	0	0	0	1	1.0462467	-10.3346507	380	1	1.10526	1.04211	1.0028	-0.0009	0.0000	0.0000;
	96	1	11.7	1.3	0	0	1	1.05222565	-1.46682359	225	1	1.08889	1	1.1311	0.0336	0.0000	0.0000;
	97	1	6.1	1.4	0	0	1	1.0497207	-12.6793305	225	1	1.08889	1.00444	1.0087	-0.0022	0.0000	0.0000;
	98	1	31.6	2.6	0	0	1	1.05720126	2.90413441	150	1	1.1	0.9	1.0912	-0.0066	0.0000	0.0000;
	99	1	68.9	-11.7	0	0	1	1.05856625	-6.82598639	225	1	1.08889	1	1.1059	-0.0169	0.0000	0.0000;
	100	2	0.2	-0	0	0	1	1.03532408	-19.0157142	225	1	1.08294	0.95	1.0089	-0.0099	0.0000	0.0000;
	101	1	0	0	0	0	1	1.06256617	-14.3218497	225	1	1.08889	0.933333	1.0051	0.0032	0.0000	0.0000;
	102	1	0	0	0	0	1	1.05811438	-12.2067949	380	1	1.10526	1.03947	1.0074	0.0071	0.0000	0.0000;
	103	1	0	0	0	0	1	1.04247118	-12.4427793	380	1	1.10526	1.03947	1.0107	-0.0033	0.0000	0.0000;
	104	1	0	0	0	0	1	1.04431107	-18.384567	225	1	1.08889	1.00444	1.0211	0.0199	0.0000	0.0000;
	1828	1	30.1	3.8	0	0	1	1.03543287	-20.4589259	225	1	1.08889	1.00444	1.0150	-0.0053	0.0000	0.0000;
	105	1	0	0	0	0	1	1.02034154	-19.9295549	225	1	1.08889	0.986667	1.0126	0.0044	0.0000	0.0000;
	106	1	12.1	4.5	0	0	1	1.0441586	-18.3928653	225	1	1.08889	1.00444	1.0212	0.0199	0.0000	0.0000;
	107	1	106.1	-0.3	0	0	1	1.03485972	-11.5222417	225	1	1.08889	0.933333	0.9335	-0.0000	0.0000	0.0000;
	108	1	0	0	0	0	1	1.05098679	-9.66238395	380	1	1.10526	1.03947	0.9074	-0.3689	0.0000	0.0000;
	109	1	43.3	8.4	0	0	1	1.05383773	0.13010386	225	1	1.08889	1	1.1149	0.0090	0.0000	0.0000;
	110	1	33.2	-7.5	0	0	1	1.05080253	-15.4485246	225	1	1.08986	1.00444	1.0140	-0.0059	0.0000	0.0000;
	111	1	99.5	-12.4	0	0	1	1.07262903	-8.77452782	225	1	1.09612	1	1.1464	0.0231	0.0000	0.0000;
	112	1	116.4	-6.7	0	0	1	1.03556175	-19.6179766	225	1	1.08889	0.986667	1.0093	0.0003	0.0000	0.0000;
	113	1	65.7	14.7	0	0	1	1.05068012	-16.4488823	225	1	1.09036	1.00444	0.9847	-0.0659	0.0000	0.0000;
	114	1	107.2	21.2	0	0	1	1.02325131	-23.1627962	225	1	1.08889	0.924444	1.0283	-0.0006	0.0000	0.0000;
	115	1	56.9	-2.7	0	0	1	1.03929415	-16.3462752	225	1	1.09614	0.986667	0.9969	-0.0022	0.0000	0.0000;
	117	1	0	0	0	0	1	1.04430442	-15.542802	380	1	1.10526	1.03947	1.0010	-0.0035	0.0000	0.0000;
	119	1	123.6	-19.8	0	0	1	1.02032333	-4.3265791	225	1	1.08444	1.00444	1.1143	-0.0060	0.0000	0.0000;
	2051	1	0	0	0	-64	1	1.00909478	-14.4340133	20	1	1.4	0.8	1.0454	0.0002	0.0000	0.0000;
	120	1	33.3	-21.3	0	0	1	1.05962103	-14.1628697	225	1	1.08444	1.00889	1.0461	-0.0047	0.0000	0.0000;
	121	1	0	0	0	0	1	1.05634783	-11.9176843	380	1	1.10263	1.02895	1.0445	-0.0042	0.0000	0.0000;
	122	1	1.7	-4.4	0	0	1	1.03540067	-11.5386604	225	1	1.08889	0.933333	0.9335	-0.0002	0.0000	0.0000;
	123	1	140.3	17.3	0	0	1	1.02228764	-13.3030244	225	1	1.08889	0.933333	1.0179	-0.0007	0.0000	0.0000;
	124	1	33.7	-1.8	0	0	1	1.07696771	-13.6697249	63	1	1.07937	0.920635	1.1423	-0.0124	0.0000	0.0000;
	125	2	0	0	0	0	1	1.04093943	-6.80257736	225	1	1.07476	0.95	1.0082	0.0000	0.0000	0.0000;
	126	1	-1.9	-5.4	0	0	1	1.05956761	7.72487088	225	1	1.09768	1	1.1031	-0.0002	0.0000	0.0000;
	127	1	0	0	0	0	1	1.05406082	7.76304292	380	1	1.10526	1.05263	1.1030	-0.0000	0.0000	0.0000;
	128	1	0	0	0	0	1	1.05419193	7.76651113	380	1	1.10526	1.05263	1.1028	0.0000	0.0000	0.0000;
	129	1	0	0	0	0	1	1.05418133	7.77022781	380	1	1.10526	1.05263	1.1029	0.0000	0.0000	0.0000;
	130	1	0	0	0	0	1	1.054197	7.75402718	380	1	1.10526	1.05263	1.1029	0.0000	0.0000	0.0000;
	131	1	0	0	0	0	1	1.03916561	-16.2638769	225	1	1.09645	0.986667	0.9966	-0.0021	0.0000	0.0000;
	132	1	0	0	0	0	1	1.03920079	-16.2359942	225	1	1.09645	0.986667	0.9964	-0.0021	0.0000	0.0000;
	133	1	0	0	0	0	1	1.0436305	-15.4011359	380	1	1.10526	1.03947	1.0005	-0.0033	0.0000	0.0000;
	134	1	77.3	-10.6	0	0	1	1.03416355	-20.3720992	225	1	1.08889	0.968889	1.0174	-0.0014	0.0000	0.0000;
	135	1	28.1	3.8	0	0	1	1.06110113	-15.1415302	225	1	1.08444	1.00889	1.0521	-0.0063	0.0000	0.0000;
	136	1	-5.2	-9.4	0	0	1	1.05186566	-15.9822264	380	1	1.10526	1.03947	0.9963	-0.0250	0.0000	0.0000;
	137	1	106.4	8	0	0	1	1.04416431	-12.0194307	225	1	1.08889	0.933333	1.0037	-0.0173	0.0000	0.0000;
	138	1	0	0	0	0	1	1.04109929	-8.63679461	380	1	1.10526	1.03947	1.0032	-0.0193	0.0000	0.0000;
	140	1	113.7	-8.3	0	0	1	1.02997395	-3.56549051	225	1	1.08444	1.00889	0.9968	-0.0257	0.0000	0.0000;
	141	1	44.6	0.5	0	0	1	1.03290062	-3.65412799	225	1	1.08444	1.00889	0.9989	-0.0216	0.0000	0.0000;
	142	1	165.2	-11.8	0	0	1	1.03976473	2.11763163	225	1	1.08444	1.00444	1.1503	-0.2435	0.0000	0.0000;
	143	1	29.2	2.1	0	0	1	1.04684002	-12.4181732	225	1	1.08889	0.933333	1.0052	-0.0182	0.0000	0.0000;
	144	1	32.8	4.4	0	0	1	1.04681461	-12.4226624	225	1	1.08889	0.933333	1.0052	-0.0182	0.0000	0.0000;
	145	1	19	-18.1	0	0	1	1.05079298	-15.4321619	225	1	1.08952	1.00444	1.0139	-0.0059	0.0000	0.0000;
	146	1	0	0	0	0	1	1.05296886	-5.61455569	225	1	1.09478	1	1.0129	-0.9505	0.0000	0.0000;
	147	1	0	0	0	0	1	1.05296693	-5.61453377	225	1	1.09478	1	1.0129	-0.9505	0.0000	0.0000;
	148	1	37.1	5.6	0	0	1	1.05127028	-1.25235866	225	1	1.08889	1	1.1255	0.0148	0.0000	0.0000;
	149	1	20	-3.9	0	0	1	1.04971605	-12.6038141	225	1	1.08889	1.00444	1.0083	-0.0021	0.0000	0.0000;
	150	1	38.1	1.6	0	0	1	1.02434396	-5.55166462	225	1	1.08444	1.00889	1.0038	-0.0511	0.0000	0.0000;
	151	1	24.8	-1.8	0	0	1	1.05022837	-2.09919317	225	1	1.08889	1	1.1320	0.0202	0.0000	0.0000;
	152	1	0	0	0	0	1	1.04780044	-9.08926111	225	1	1.08444	1.00889	1.0139	-0.0032	0.0000	0.0000;
	153	1	0	0	0	0	1	1.04779333	-9.09300321	225	1	1.08444	1.00889	1.0140	-0.0032	0.0000	0.0000;
	154	1	0	0	0	0	1	1.04654301	-4.26458387	225	1	1.08444	1.00889	1.0120	-0.0034	0.0000	0.0000;
	155	1	0	0	0	0	1	1.04954421	-3.24814596	380	1	1.10263	1.02895	1.0123	-0.0037	0.0000	0.0000;
	156	1	155.3	26.5	0	0	1	1.03506318	-18.6019081	225	1	1.08889	0.888889	1.0077	0.0009	0.0000	0.0000;
	157	1	0	0	0	0	1	1.05955341	7.72501497	225	1	1.09766	1	1.1031	-0.0002	0.0000	0.0000;
	158	1	0	0	0	0	1	1.05414112	7.68580327	380	1	1.10526	1.05263	1.1031	-0.0000	0.0000	0.0000;
	159	1	21.5	4.4	0	0	1	1.04491366	-17.8433208	225	1	1.08889	0.986667	0.9835	-0.0665	0.0000	0.0000;
	160	1	26.2	2.1	0	0	1	1.05550719	-6.31007357	225	1	1.08889	1	1.0813	-0.0808	0.0000	0.0000;
	161	1	0	0	0	0	1	1.05285738	-10.38803	225	1	1.08444	1.00444	1.0929	-0.0102	0.0000	0.0000;
	162	1	0	0	0	0	1	1.05285738	-10.38803	225	1	1.08444	1.00444	1.0929	-0.0102	0.0000	0.0000;
	163	1	0	0	0	0	1	1.05286476	-10.3882268	225	1	1.08444	1.00444	1.0929	-0.0102	0.0000	0.0000;
	164	1	55.3	-11.4	0	0	1	1.05285634	-10.3880022	225	1	1.08444	1.00444	1.0929	-0.0102	0.0000	0.0000;
	165	1	0	0	0	0	1	1.01786395	-12.9860547	225	1	1.08889	0.933333	1.0159	0.0000	0.0000	0.0000;
	166	1	30	12.3	0	0	1	1.03463335	-16.49139	225	1	1.08889	0.986667	1.0033	-0.0196	0.0000	0.0000;
	2019	1	0	0	0	-64	1	0.964382076	-6.2094299	20	1	1.4	0.9	1.0147	-0.9338	0.0000	0.0000;
	167	1	0	0	0	0	1	1.0497338	-5.77106023	225	1	1.08941	1	1.0111	-0.8486	0.0000	0.0000;
	168	1	0	0	0	0	1	1.05811989	-2.89607896	380	1	1.10526	1.05263	1.0183	-0.3910	0.0000	0.0000;
	169	2	0	0	0	0	1	1.06614496	-14.2441936	225	1	1.1	0.9	1.0000	0.0000	0.0000	0.0000;
	170	1	17.8	2.6	0	0	1	1.03309522	-14.1929597	150	1	1.08	0.966667	1.0297	0.0031	0.0000	0.0000;
	171	1	25.3	-3.2	0	0	1	1.03567591	-18.9588754	225	1	1.08889	1.00444	1.0086	-0.0099	0.0000	0.0000;
	172	1	-3.7	-2	0	0	1	1.03602461	-18.9157795	225	1	1.08889	1.00444	1.0084	-0.0099	0.0000	0.0000;
	173	1	37.3	0.7	0	0	1	1.02465504	-20.2621622	225	1	1.08889	0.888889	1.0152	0.0022	0.0000	0.0000;
	181	1	107.9	3.9	0	0	1	1.05023084	-2.07717584	225	1	1.08889	1	1.1318	0.0203	0.0000	0.0000;
	182	1	29.5	6.8	0	0	1	1.03809026	-18.8086378	225	1	1.08889	0.986667	1.0053	0.0000	0.0000	0.0000;
	183	1	0	0	0	0	1	1.03947	-7.43794313	380	1	1.10526	1.03947	0.9984	-0.0116	0.0000	1338.1119;
	184	1	0	0	0	0	1	1.04068662	-7.07878266	380	1	1.10526	1.03947	0.9965	-0.0302	0.0000	0.0000;
	185	1	0	0	0	0	1	1.04057622	-7.08209435	380	1	1.10526	1.03947	0.9964	-0.0302	0.0000	0.0000;
	186	1	0	0	0	0	1	1.03960788	-7.42134885	380	1	1.10526	1.03947	0.9982	-0.0141	0.0000	0.0000;
	187	1	28.1	-10	0	0	1	1.03494658	-21.2295616	225	1	1.08889	0.924444	1.0175	-0.0028	0.0000	0.0000;
	188	1	-2	-1.1	0	0	1	1.03455934	-22.7785439	225	1	1.08889	0.986667	1.0320	-0.0075	0.0000	0.0000;
	189	1	65.8	19.1	0	0	1	1.04035256	-9.44591062	225	1	1.08444	1.00444	1.0745	-0.0333	0.0000	0.0000;
	190	1	-2.3	1.2	0	0	1	1.04557203	-8.67701797	380	1	1.10263	1.04211	0.9609	-0.0987	0.0000	0.0000;
	191	1	-2.3	1.4	0	0	1	1.04563144	-8.68180749	380	1	1.10263	1.04211	0.9609	-0.0989	0.0000	0.0000;
	192	1	0	0	0	0	1	1.03591312	-19.336186	225	1	1.08889	1.00444	1.0101	-0.0104	0.0000	0.0000;
	193	1	0	0	0	0	1	1.05028472	-3.9847489	225	1	1.08889	0.977778	1.0128	-0.0072	0.0000	0.0000;
	194	1	0	0	0	0	1	1.05029112	-3.98482823	225	1	1.08889	0.977778	1.0128	-0.0072	0.0000	0.0000;
	195	1	83.6	-8.6	0	0	1	1.03332988	-20.9519583	225	1	1.08889	0.968889	1.0203	-0.0015	0.0000	0.0000;
	196	1	0	0	0	0	1	1.03071447	-7.45185243	225	1	1.08889	0.933333	0.9998	-0.0000	0.0000	0.0000;
	197	1	0	0	0	0	1	1.0307611	-7.42417881	225	1	1.08889	0.933333	0.9997	-0.0000	0.0000	0.0000;
	198	1	57.5	10.2	0	0	1	1.04426012	-4.50282773	225	1	1.08444	1.00444	1.0927	-0.0667	0.0000	0.0000;
	199	1	177.4	-31.4	0	0	1	1.05439402	-2.06108421	225	1	1.08444	1.00444	1.1296	-0.0202	0.0000	0.0000;
	200	1	0	0	0	0	1	1.0398366	-4.44323382	225	1	1.08889	0.977778	1.0104	-0.0011	0.0000	0.0000;
	201	1	0	0	0	0	1	1.04442867	-5.41726632	225	1	1.08444	1.00444	1.0523	-0.3108	0.0000	0.0000;
	202	1	124.2	-3.2	0	0	1	1.03606887	-21.5144695	225	1	1.08889	0.951111	1.0167	-0.0075	0.0000	0.0000;
	203	1	35.3	1.9	0	0	1	1.03534263	-18.5405243	225	1	1.08889	1.00444	1.0049	-0.0191	0.0000	0.0000;
	204	1	51.6	-4	0	0	1	1.03535755	-22.8034863	225	1	1.08889	0.986667	1.0320	-0.0082	0.0000	0.0000;
	2086	1	0	0	0	-64	1	1.00363933	-14.9031815	20	1	1.4	0.8	1.0500	-0.0012	0.0000	0.0000;
	205	1	16.9	-1.8	0	0	1	1.05264053	-14.5072888	225	1	1.08444	1.00889	1.0501	-0.0038	0.0000	0.0000;
	206	1	0	0	0	0	1	1.05580906	-12.7034435	380	1	1.10263	1.02895	1.0480	-0.0042	0.0000	0.0000;
	207	1	38.6	-0.7	0	0	1	1.03532687	-18.6418003	225	1	1.08889	1.00444	1.0055	-0.0194	0.0000	0.0000;
	1829	2	0	0	0	0	1	1.02889934	-20.2479395	225	1	1.07859	0.95	1.0176	0.0000	0.0000	0.0000;
	208	1	0	0	0	0	1	1.02888706	-20.2504144	225	1	1.08889	0.888889	1.0176	0.0000	0.0000	0.0000;
	209	1	171.1	24.7	0	0	1	1.04394579	-1.91992503	225	1	1.08444	1.00444	1.0696	0.0189	0.0000	0.0000;
	210	1	46.3	14.3	0	0	1	1.03352481	-18.742912	225	1	1.09504	0.986667	1.0052	0.0004	0.0000	0.0000;
	211	1	58.6	9.8	0	0	1	1.0427778	-4.75506993	225	1	1.08444	1.00889	1.0157	-0.0018	0.0000	0.0000;
	212	1	14.6	-0.7	0	0	1	1.04335642	-4.27016872	225	1	1.08444	1.00889	1.0141	-0.0018	0.0000	0.0000;
	213	1	75.4	25.3	0	0	1	1.02890284	-7.7879489	225	1	1.08889	0.933333	1.0025	0.0002	0.0000	0.0000;
	215	1	0	0	0	0	1	1.05033157	-4.11215166	380	1	1.10526	1.03947	1.0009	-0.0097	0.0000	0.0000;
	216	1	74.9	-2.9	0	0	1	1.05401736	-16.3724811	380	1	1.10526	1.03947	1.0125	-0.0202	0.0000	0.0000;
	217	1	0	0	0	0	1	1.03061289	-7.46271406	225	1	1.08889	0.933333	1.0000	-0.0000	0.0000	0.0000;
	218	1	0	0	0	0	1	1.03061521	-7.46059661	225	1	1.08889	0.933333	1.0000	-0.0000	0.0000	0.0000;
	219	1	55.6	14.5	0	0	1	1.03933003	-1.3062444	225	1	1.08444	1.00889	1.0010	0.0000	0.0000	0.0000;
	220	1	-0.1	0.8	0	0	1	1.03973428	-1.25108309	225	1	1.08444	1.00889	1.0007	-0.0001	0.0000	0.0000;
	221	1	11	-0.4	0	0	1	1.04390809	-3.87053663	225	1	1.08444	1.00889	1.0125	-0.0018	0.0000	0.0000;
	222	1	39.3	5.6	0	0	1	1.04137281	-7.66116766	225	1	1.08889	1.00444	1.0262	-0.0053	0.0000	0.0000;
	223	1	21.6	1.4	0	0	1	1.04276488	-4.71308091	225	1	1.08444	1.00889	1.0154	-0.0017	0.0000	0.0000;
	224	1	16.7	2.3	0	0	1	1.04312796	-4.67003791	225	1	1.08444	1.00889	1.0152	-0.0018	0.0000	0.0000;
	225	1	2	-1.4	0	0	1	1.03679491	-21.3458671	150	1	1.10667	0.946667	1.0194	-0.0013	0.0000	0.0000;
	1830	1	0	0	0	0	1	1.06320483	-8.73812838	225	1	1.08444	1.00444	1.0877	-0.0125	0.0000	0.0000;
	226	1	0	0	0	0	1	1.06098812	-5.55353824	380	1	1.10263	1.04211	1.0878	-0.0120	0.0000	0.0000;
	227	1	119.3	-16.4	0	0	1	1.07124087	-8.0469951	225	1	1.09795	1	1.1471	0.0308	0.0000	0.0000;
	228	1	0	0	0	0	1	1.05835209	-4.68567776	380	1	1.10526	1.05019	1.1486	0.0413	0.0000	0.0000;
	229	1	72.1	6	0	0	1	1.03427471	-20.990785	225	1	1.08889	0.911111	1.0152	-0.0031	0.0000	0.0000;
	230	1	0	0	0	0	1	1.03785889	-19.02253	380	1	1.10526	1	1.0144	-0.0017	0.0000	0.0000;
	231	1	16.1	1.9	0	0	1	1.04430522	-18.3862265	225	1	1.08889	1.00444	1.0211	0.0199	0.0000	0.0000;
	232	1	14.9	0.9	0	0	1	1.03546288	-20.4558669	225	1	1.08889	1.00444	1.0150	-0.0053	0.0000	0.0000;
	233	1	6.1	1.7	0	0	1	1.04648799	-17.4898808	225	1	1.08889	0.986667	0.9820	-0.0666	0.0000	0.0000;
	234	1	1.1	1.7	0	0	1	1.04653239	-17.4736587	225	1	1.08889	0.986667	0.9819	-0.0666	0.0000	0.0000;
	235	1	2	-3.9	0	0	1	1.04785183	-16.0640574	225	1	1.08889	1.00444	0.9840	-0.0649	0.0000	0.0000;
	236	1	2.6	2.4	0	0	1	1.04764796	-16.0626282	225	1	1.08889	1.00444	0.9840	-0.0649	0.0000	0.0000;
	237	1	129	-3.4	0	0	1	1.03840295	-19.2621254	225	1	1.08889	1.00444	1.0100	-0.0037	0.0000	0.0000;
	238	1	0	0	0	0	1	1.04082635	-19.0392023	225	1	1.08889	1.00444	1.0099	-0.0035	0.0000	0.0000;
	239	1	25.8	4.4	0	0	1	1.04801689	-16.751108	225	1	1.08889	1.00444	0.9851	-0.0654	0.0000	0.0000;
	240	1	31.9	3.6	0	0	1	1.04771553	-16.7770057	225	1	1.08889	1.00444	0.9853	-0.0653	0.0000	0.0000;
	241	2	4.3	-1	0	0	1	0.96910803	-2.8580169	20	1	1.1	0.9	1.0000	-0.0000	0.0000	0.0000;
	242	1	0	0	0	0	1	1.04777241	-5.59377005	150	1	1.08	0.966667	1.0024	-0.0009	0.0000	0.0000;
	243	1	-3.4	-9.5	0	0	1	1.04191216	-14.4270033	380	1	1.11402	1.03947	1.0000	-0.0010	0.0000	0.0000;
	244	1	30.9	7.4	0	0	1	1.0460415	-15.7835531	380	1	1.11482	1.03947	1.0026	-0.0021	0.0000	0.0000;
	245	1	11.7	0.6	0	0	1	1.03957052	-14.5919904	380	1	1.11264	1.03947	0.9994	-0.0004	0.0000	0.0000;
	246	1	-18.3	-23.8	0	0	1	1.03947	-14.509232	380	1	1.11483	1.03947	0.9993	-0.0000	0.0000	13.2692;
	247	1	45	5.3	0	0	1	1.03515869	-19.0668789	225	1	1.08889	1.00444	1.0092	-0.0099	0.0000	0.0000;
	2029	1	0	0	0	-64	1	0.968859092	-5.30677168	20	1	1.4	0.9	1.0968	-0.0098	0.0000	0.0000;
	2030	1	0	0	0	-64	1	0.967509318	-5.33984902	20	1	1.4	0.9	1.0970	-0.0120	0.0000	0.0000;
	248	1	0	0	0	0	1	1.05608379	-5.19585263	225	1	1.08889	1	1.0972	-0.0153	0.0000	0.0000;
	249	1	0	0	0	0	1	1.05590746	-5.23978005	225	1	1.08889	1	1.0975	-0.0172	0.0000	0.0000;
	250	1	0	0	0	0	1	1.07348227	-4.19470246	380	1	1.10526	1.05019	1.0966	-0.0193	0.0000	0.0000;
	251	1	0.7	-3.7	0	0	1	1.02909971	-7.79133016	225	1	1.08889	0.933333	1.0025	0.0001	0.0000	0.0000;
	252	1	92.9	-6	0	0	1	1.04850634	-16.4921342	380	1	1.10526	1.03537	1.0058	-0.0144	0.0000	0.0000;
	2025	1	0	0	0	-58	1	0.980585471	-18.2444966	20	1	1.4	0.9	1.0160	0.0312	0.0000	0.0000;
	2031	1	0	0	0	-128	1	0.948586906	-17.5187037	20	1	1.4	0.9	1.0141	0.0231	0.0000	0.0000;
	2032	1	0	0	0	-58	1	0.972190051	-17.7556632	20	1	1.4	0.9	1.0157	0.0300	0.0000	0.0000;
	2046	1	0	0	0	-58	1	0.975257655	-17.8576875	20	1	1.4	0.9	1.0143	0.0187	0.0000	0.0000;
	253	1	3.2	-0.8	0	0	1	1.03636656	-16.9635032	225	1	1.08889	1.00444	1.0149	0.0222	0.0000	0.0000;
	254	1	3.9	3	0	0	1	1.03904719	-17.0697874	225	1	1.08889	1.00444	1.0148	0.0214	0.0000	0.0000;
	255	1	0	0	0	0	1	1.04467583	-15.9401493	225	1	1.08889	1.00444	1.0143	-0.0049	0.0000	0.0000;
	257	1	0	0	0	0	1	1.04224532	-13.9600365	380	1	1.10526	1.04211	1.0096	0.0022	0.0000	0.0000;
	258	1	0	0	0	0	1	1.04211	-14.0784599	380	1	1.10526	1.04211	1.0126	0.0384	0.0000	1310.4526;
	259	1	106.5	20.7	0	0	1	1.03702409	-21.5074273	225	1	1.08889	0.928889	1.0117	-0.0141	0.0000	0.0000;
	260	1	157.5	-28.3	0	0	1	1.05404063	-16.3827372	380	1	1.10526	1.03947	1.0126	-0.0202	0.0000	0.0000;
	261	1	91.4	-3.2	0	0	1	1.02773539	0.400970722	225	1	1.08444	1.00444	1.0847	-0.0071	0.0000	0.0000;
	262	1	5.5	-1.3	0	0	1	1.02997087	-7.904712	225	1	1.08889	0.933333	1.0032	-0.0004	0.0000	0.0000;
	263	1	208	14.9	0	0	1	1.04183333	-7.64527316	380	1	1.10526	1.03947	1.0001	-0.0206	0.0000	0.0000;
	267	1	250.6	22.2	0	0	1	1.04152704	-5.66965338	225	1	1.08444	1.00444	1.0596	-0.0877	0.0000	0.0000;
	268	1	0	0	0	0	1	1.04211	-2.16287392	380	1	1.10263	1.04211	1.0599	0.1620	0.0000	4324.5261;
	269	1	0	0	0	0	1	1.04212041	-2.15920748	380	1	1.10263	1.04211	1.0449	-0.0140	0.0000	0.0001;
	270	2	46.4	27.4	0	0	1	1.0238643	-20.6729288	20	1	1.06846	0.95	1.0187	0.0000	0.0000	0.0000;
	271	1	0	0	0	0	1	1.02967344	-20.8465072	225	1	1.08889	0.986667	1.0189	-0.0004	0.0000	0.0000;
	272	1	159.3	40.7	0	0	1	1.03022891	-17.0207029	225	1	1.08889	0.986667	1.0048	-0.0206	0.0000	0.0000;
	273	1	203.1	3.9	0	0	1	1.05378579	1.16798107	380	1	1.10263	1.04211	1.0696	-0.0192	0.0000	0.0000;
	274	1	50	8.3	0	0	1	1.0465807	-19.2612067	225	1	1.09611	0.986667	1.0064	-0.0179	0.0000	0.0000;
	275	1	17.6	-2.4	0	0	1	1.04967532	-13.868846	225	1	1.08889	1.00444	1.0132	-0.0027	0.0000	0.0000;
	276	1	22.7	-2.9	0	0	1	1.02811235	-18.8556975	225	1	1.08889	1.00444	0.9992	-0.0167	0.0000	0.0000;
	278	1	0	0	0	0	1	1.06387282	-10.6847693	20	1	1.4	0.9	0.9658	-0.1515	0.0000	0.0000;
	279	1	36.2	-22.3	0	0	1	1.05353786	-10.2025874	225	1	1.08889	0.933333	0.9691	-0.1519	0.0000	0.0000;
	280	1	169.5	24.1	0	0	1	1.04546433	-7.95810857	380	1	1.10526	1.03947	0.9796	-0.1510	0.0000	0.0000;
	281	1	0	0	0	0	1	1.04785824	-6.46748302	225	1	1.08959	1	0.9954	-0.8514	0.0000	0.0000;
	282	1	0	0	0	0	1	1.04995547	-5.77376448	225	1	1.08959	1	1.0111	-0.8487	0.0000	0.0000;
	283	1	0	0	0	0	1	1.01783468	-9.78134185	150	1	1.08	0.966667	1.0425	-0.0001	0.0000	0.0000;
	284	1	25.8	-6.7	0	0	1	1.04977548	-16.3278086	225	1	1.08889	1.00444	0.9843	-0.0653	0.0000	0.0000;
	285	1	65.6	-1	0	0	1	1.03921992	-16.7487156	225	1	1.08889	1.00444	0.9826	-0.0685	0.0000	0.0000;
	286	1	52.2	0.8	0	0	1	1.0539256	-16.8380574	225	1	1.08889	0.933333	1.0150	-0.0025	0.0000	0.0000;
	287	1	19.7	-0.8	0	0	1	1.03518949	-8.58306526	225	1	1.08444	1.00444	1.0572	-0.0817	0.0000	0.0000;
	288	1	17.6	2	0	0	1	1.03518824	-8.58280038	225	1	1.08444	1.00444	1.0572	-0.0817	0.0000	0.0000;
	289	1	58.8	-0.8	0	0	1	1.04020023	-16.189116	225	1	1.08889	1.00444	0.9809	-0.0699	0.0000	0.0000;
	2062	1	0	0	0	-64	1	0.979764786	-16.8784796	20	1	1.4	0.9	0.9745	-0.0503	0.0000	0.0000;
	290	1	108.4	-13.2	0	0	1	1.03903093	-16.4869642	225	1	1.08889	1.00444	0.9766	-0.0567	0.0000	0.0000;
	291	1	0	0	0	0	1	1.04580409	-14.6467128	380	1	1.10526	1.04211	0.9825	-0.0624	0.0000	0.0000;
	292	1	0	0	0	0	1	1.0460424	-14.6924302	380	1	1.10526	1.04211	0.9824	-0.0621	0.0000	0.0000;
	293	1	0	0	0	0	1	1.05117503	-14.1964019	380	1	1.10526	1.04211	0.9699	-0.0808	0.0000	0.0000;
	294	1	0	0	0	0	1	1.04592379	-14.6695776	380	1	1.10526	1.04211	0.9825	-0.0623	0.0000	0.0000;
	295	1	160.9	1.6	0	0	1	1.02794693	-0.163506294	225	1	1.08444	1.00444	1.0888	-0.0086	0.0000	0.0000;
	296	1	0	0	0	0	1	1.03892838	-18.0918753	380	1	1.10526	1	1.0139	-0.0026	0.0000	0.0000;
	297	1	34.4	6.6	0	0	1	1.05062175	-16.408663	225	1	1.08889	1.00444	0.9845	-0.0658	0.0000	0.0000;
	298	1	0	0	0	0	1	1.02768322	-18.9353461	225	1	1.08889	1.00444	0.9999	-0.0168	0.0000	0.0000;
	299	1	0	0	0	0	1	1.04459962	-9.73914454	380	1	1.10526	1.03947	1.0022	-0.0031	0.0000	0.0000;
	300	1	0	0	0	0	1	1.049131	4.86447636	380	1	1.10263	1.04211	1.0738	-0.0205	0.0000	0.0000;
	301	1	0	0	0	0	1	1.04917078	4.86547706	380	1	1.10263	1.04211	1.0737	-0.0205	0.0000	0.0000;
	302	1	0	0	0	0	1	1.04917724	4.86550736	380	1	1.10263	1.04211	1.0737	-0.0205	0.0000	0.0000;
	303	1	184.2	-18.9	0	0	1	1.04328828	-2.50614618	225	1	1.08444	1.00444	1.1044	-0.0402	0.0000	0.0000;
	304	1	-15.6	-17.2	0	0	1	1.03547631	-14.5662994	380	1	1.11618	1	1.0034	-0.0005	0.0000	0.0000;
	305	1	-23.2	0.6	0	0	1	1.03776859	-15.1649514	380	1	1.11703	1	1.0043	-0.0007	0.0000	0.0000;
	306	1	42.2	-0.7	0	0	1	1.02580049	-21.568558	225	1	1.08889	0.888889	1.0161	0.0069	0.0000	0.0000;
	2047	1	0	0	0	-64	1	0.972938265	-16.4318701	20	1	1.4	0.9	0.9776	-0.0671	0.0000	0.0000;
	307	1	0	0	0	0	1	1.04064565	-15.7217695	225	1	1.08889	1.00444	0.9796	-0.0696	0.0000	0.0000;
	308	1	0	0	0	0	1	1.0445295	-12.9223931	380	1	1.10526	1.04211	0.9849	-0.0707	0.0000	0.0000;
	309	1	96.9	-28.2	0	0	1	1.05937477	-1.38448977	225	1	1.09445	1	1.1236	0.0059	0.0000	0.0000;
	310	1	-1.7	-3.4	0	0	1	1.04211	9.38719757	380	1	1.10263	1.04211	1.1623	-0.0000	0.0000	3965.7817;
	311	1	-10.7	-3.4	0	0	1	1.04211	9.36049358	380	1	1.10263	1.04211	1.1623	-0.0000	0.0000	4630.1736;
	312	1	-7.2	-9.3	0	0	1	1.03216216	-17.7000083	225	1	1.08895	0.933333	1.0115	-0.0168	0.0000	0.0000;
	313	1	87.6	-1.8	0	0	1	1.05007785	-13.9276207	225	1	1.08889	1.00444	1.0133	-0.0029	0.0000	0.0000;
	314	1	32.2	7.9	0	0	1	1.02300855	-22.9534131	225	1	1.08889	0.888889	1.0261	-0.0005	0.0000	0.0000;
	315	1	28.6	2.6	0	0	1	1.02316725	-22.9500698	225	1	1.08889	0.888889	1.0260	-0.0005	0.0000	0.0000;
	316	1	0	0	0	0	1	1.0789669	-10.8547834	380	1	1.10526	1.03947	1.0031	0.0034	0.0000	0.0000;
	317	1	141.6	32.1	0	0	1	1.04588637	-1.54623767	225	1	1.08889	1	1.0988	-0.0148	0.0000	0.0000;
	318	1	30.1	-3	0	0	1	1.02819075	-18.8395216	225	1	1.08889	1.00444	0.9990	-0.0167	0.0000	0.0000;
	319	1	8.2	4.4	0	0	1	1.03521194	-14.6975754	150	1	1.10667	0.9	1.0272	0.0029	0.0000	0.0000;
	320	1	91.6	8.9	0	0	1	1.04603056	-9.8901186	225	1	1.08576	1.00444	1.0759	-0.0241	0.0000	0.0000;
	321	1	2.9	-9.7	0	0	1	1.04246674	-16.6040029	225	1	1.08889	0.986667	1.0018	-0.0238	0.0000	0.0000;