function mpc = case2869pegase_solved
%CASE2869PEGASE_SOLVED

%% MATPOWER Case Format : Version 2
mpc.version = '2';

%%-----  Power Flow Data  -----%%
%% system MVA base
mpc.baseMVA = 100;

%% bus data
%	bus_i	type	Pd	Qd	Gs	Bs	area	Vm	Va	baseKV	zone	Vmax	Vmin	lam_P	lam_Q	mu_Vmax	mu_Vmin
mpc.bus = [
	3	1	151	48.8	0	4.69	0	1.07558677	-8.28931301	220	5	1.1	0.9	1.0232	0.0044	0.0000	0.0000;
	4	1	171.41	23.4	0	2.1	0	1.05863782	-5.68928104	220	5	1.1	0.9	1.0146	0.0030	0.0000	0.0000;
	10	1	134	24.7	0	12.44	0	1.0642038	-17.5241546	220	5	1.1	0.9	1.0423	-0.0086	0.0000	0.0000;
	15	1	59.67	26.7	0	12.84	0	1.06507908	-13.7586744	220	4	1.1	0.9	1.0325	-0.0001	0.0000	0.0000;
	21	1	161.2	39.3	0	30.71	0	1.0602751	-16.0449535	220	5	1.1	0.9	1.0378	-0.0024	0.0000	0.0000;
	22	1	0	-0	0	0.85	0	1.07902435	-10.9695191	220	5	1.1	0.9	1.0190	0.0034	0.0000	0.0000;
	26	1	167.3	54.8	0	110.54	0	1.07023127	-1.24258872	380	5	1.1	0.9	1.0014	0.0002	0.0000	0.0000;
	29	1	152.9	49.4	0	27.65	0	1.05012818	-2.9809643	380	5	1.1	0.9	1.0076	0.0007	0.0000	0.0000;
	32	2	0	0	0	0	0	1.03498272	-6.39888007	220	4	1.1	0.9	1.0125	-0.0018	0.0000	0.0000;
	33	2	0	0	0	0	0	1.05645127	-5.27942548	220	4	1.1	0.9	0.9991	0.0003	0.0000	0.0000;
	38	1	42.75	12.8	0	13.3	0	1.02492123	-3.67522747	220	8	1.1	0.9	1.0002	0.0030	0.0000	0.0000;
	39	2	0	0	0	0	0	1.0220409	-5.31560676	150	10	1.1	0.9	1.0000	-0.0000	0.0000	0.0000;
	42	1	20.82	7.9	0	26.89	0	1.08582715	-6.84172371	380	4	1.1	0.9	1.0135	-0.0017	0.0000	0.0000;
	44	1	-0	0	0	7.27	0	1.07108665	-15.5461491	220	5	1.1	0.9	1.0315	-0.0089	0.0000	0.0000;
	51	2	0	0	0	0	0	1.06881785	-5.320564	220	4	1.1	0.9	1.0029	0.0001	0.0000	0.0000;
	52	1	127.6	31.8	0	20.51	0	1.06305617	-12.6718036	150	8	1.1	0.9	1.0268	0.0053	0.0000	0.0000;
	53	1	48.65	16.1	0	7.14	0	1.09087556	-2.28871022	220	5	1.1	0.9	1.0011	0.0001	0.0000	0.0000;
	58	1	0	0	0	2.31	0	1.04515521	-1.15454941	380	5	1.1	0.9	1.0000	-0.0003	0.0000	0.0000;
	59	1	119.2	20.7	0	3.31	0	1.08368924	-11.9885383	220	5	1.1	0.9	1.0283	-0.0056	0.0000	0.0000;
	69	1	62.87	20.5	0	1.15	0	1.0628778	-13.7511514	150	8	1.1	0.9	1.0325	0.0050	0.0000	0.0000;
	71	1	126.3	42.4	0	55.24	0	1.0796605	-13.2985592	150	8	1.1	0.9	1.0291	-0.0006	0.0000	0.0000;
	72	1	6.91	-4.6	0	5.75	0	1.04612517	-6.47732911	220	4	1.1	0.9	1.0070	0.0017	0.0000	0.0000;
	75	1	38.74	6.1	0	1.17	0	1.07526172	-10.4267103	220	4	1.1	0.9	1.0180	-0.0008	0.0000	0.0000;
	76	1	22.13	10.7	0	14.21	0	1.02499726	-3.67128494	220	8	1.1	0.9	1.0002	0.0030	0.0000	0.0000;
	77	1	-0	-0	0	0.73	0	1.08182771	-7.08078446	220	4	1.1	0.9	1.0063	-0.0001	0.0000	0.0000;
	89	1	0	0	0.199111	4.530599	0	1.02595089	-5.70163004	380	2	1.1	0.9	1.0150	0.0039	0.0000	0.0000;
	90	1	363.25	115.39	0	3.95	0	1.07619129	-10.1035744	220	5	1.1	0.9	1.0250	0.0050	0.0000	0.0000;
	91	1	-0	0	0	0.02	0	1.06659768	-11.5456883	150	8	1.1	0.9	1.0177	0.0047	0.0000	0.0000;
	96	1	-8.4	28.66	0	3.49	0	1.09590279	-1.95917544	220	5	1.1	0.9	1.0057	0.0013	0.0000	0.0000;
	113	1	-0	-0	0	6.532711	0	1.06554539	-4.12266742	380	5	1.1	0.9	1.0095	0.0011	0.0000	0.0000;
	115	1	0	-0	0	4.21	0	1.06847028	-12.7360273	220	5	1.1	0.9	1.0257	0.0049	0.0000	0.0000;
	118	1	704.53	-35.33	0	13.102834	0	1.0739824	-4.13156142	380	5	1.1	0.9	1.0070	-0.0002	0.0000	0.0000;
	124	2	0	0	0	0	0	1.07025042	2.31262089	220	5	1.1	0.9	0.9965	-0.0000	0.0000	0.0000;
	128	1	23.73	12.7	0	0.52	0	1.05199191	-12.9477172	220	5	1.1	0.9	1.0346	0.0069	0.0000	0.0000;
	130	1	-0	0	0.135375	47.750675	0	1.0904969	-10.6040032	380	10	1.1	0.9	1.0243	-0.0013	0.0000	0.0000;
	132	1	0	-0	0	21.39	0	1.0911071	-7.32487452	380	1	1.1	0.9	1.0125	-0.0027	0.0000	0.0000;
	133	1	38.14	12.5	0	6.28	0	1.06777724	-11.4373636	150	8	1.1	0.9	1.0236	0.0049	0.0000	0.0000;
	138	1	-75.38	7.8	0	29.9	0	1.09517713	-7.96189151	380	10	1.1	0.9	1.0142	-0.0050	0.0000	0.0000;
	139	1	-764.34	66.91	0	33.47	0	1.04292862	-3.3134003	380	8	1.1	0.9	1.0079	-0.0102	0.0000	0.0000;
	140	1	0	0	0	4.14	0	1.04854839	-8.56962885	220	8	1.1	0.9	1.0247	0.0016	0.0000	0.0000;
	143	1	0	0	0	0	0	1.05570472	-12.5028861	150	8	1.1	0.9	1.0278	0.0039	0.0000	0.0000;
	145	1	38.34	5.6	0	7.64	0	1.09157571	-4.27673081	220	5	1.1	0.9	1.0024	-0.0000	0.0000	0.0000;
	148	1	32.34	12	0	6.1	0	1.06809272	-4.60875178	220	5	1.1	0.9	1.0072	0.0012	0.0000	0.0000;
	150	2	0	0	0	0	0	1.08108927	-3.34880909	220	5	1.1	0.9	1.0000	-0.0000	0.0000	0.0000;
	163	1	147.76	32.73	0	8.34	0	1.0796074	-8.46060825	220	5	1.1	0.9	1.0167	0.0041	0.0000	0.0000;
	164	1	0	-0	0	5.17	0	1.05503567	-17.6200003	150	8	1.1	0.9	1.0543	0.0087	0.0000	0.0000;
	171	1	100.8	13.2	0	5.24	0	1.0619575	-7.54217072	220	5	1.1	0.9	1.0065	0.0028	0.0000	0.0000;
	172	1	111.7	10.96	0	4.22	0	1.06248695	-5.94301693	220	4	1.1	0.9	1.0056	0.0002	0.0000	0.0000;
	174	1	370.5	-17	0	9.91	0	1.09085896	-16.3240255	220	5	1.1	0.9	1.0450	0.0016	0.0000	0.0000;
	177	1	94.9	36.2	0	16.46	0	0.998213416	-9.81514136	220	10	1.1	0.9	1.0220	0.0016	0.0000	0.0000;
	179	2	0	0	0	0	0	1.09230351	-5.42100861	380	4	1.1	0.9	1.0060	-0.0004	0.0000	0.0000;
	184	1	-0	-0	0	2.42	0	1.06540823	-10.6218229	220	5	1.1	0.9	1.0213	0.0035	0.0000	0.0000;
	188	1	36.84	13.9	0	3.3	0	1.05660625	-9.77458495	220	5	1.1	0.9	1.0217	0.0049	0.0000	0.0000;
	194	2	0	0	0	0	0	1.08275333	-2.83226062	150	8	1.1	0.9	1.0000	0.0000	0.0000	0.0000;
	195	1	73.14	21.55	0	8.52	0	1.08685752	-3.49588757	220	5	1.1	0.9	1.0014	0.0001	0.0000	0.0000;
	196	1	0	-0	0	12.48	0	1.09931864	-20.5008004	220	5	1.1	0.9	1.0251	-0.0939	0.0000	0.0000;
	198	1	39.74	11.8	0	1.44	0	1.04785458	-13.3466516	220	5	1.1	0.9	1.0374	0.0082	0.0000	0.0000;
	199	1	86.8	28.4	0	1.34	0	1.06212747	-12.3095422	150	8	1.1	0.9	1.0229	0.0058	0.0000	0.0000;
	201	2	0	0	0	0	0	1.08073503	-8.46095387	220	4	1.1	0.9	1.0079	-0.0005	0.0000	0.0000;
	205	1	46.15	18.2	0	1.29	0	1.05200957	-11.968974	150	8	1.1	0.9	1.0240	0.0042	0.0000	0.0000;
	207	1	321.98	84.4	0	1.34	0	1.04998768	-12.3219741	220	5	1.1	0.9	1.0333	0.0068	0.0000	0.0000;
	211	1	75.28	19.2	0	1.9	0	1.05364165	-12.3722054	110	8	1.1	0.9	1.0316	0.0017	0.0000	0.0000;
	216	1	155.6	54.7	0	2.21	0	1.08640724	-15.3999346	220	5	1.1	0.9	1.0369	0.0004	0.0000	0.0000;
	217	1	105.2	0.1	0	7.36	0	1.04337916	-6.82291848	220	5	1.1	0.9	1.0153	0.0032	0.0000	0.0000;
	218	1	69.83	15.12	0	2.23	0	1.08897498	-7.84656426	220	5	1.1	0.9	1.0144	0.0023	0.0000	0.0000;
	221	2	0	0	0	0	0	1.04083142	-1.18799902	380	5	1.1	0.9	1.0001	-0.0000	0.0000	0.0000;
	225	1	0	0	0	1.15	0	1.06560847	-13.114133	220	5	1.1	0.9	1.0282	0.0055	0.0000	0.0000;
	228	1	-23.43	57.4	0	0	0	1.07661663	-8.34946651	150	2	1.1	0.9	1.0012	0.0017	0.0000	0.0000;
	230	1	152.07	22.52	0	7.87	0	1.05111493	-5.04655149	220	4	1.1	0.9	1.0086	0.0015	0.0000	0.0000;
	231	1	-0.13	-1	0	0	0	1.02179641	-6.89610817	110	8	1.1	0.9	1.0105	0.0073	0.0000	0.0000;
	236	1	45.85	7	0	1.05	0	1.07106177	-12.4003882	220	4	1.1	0.9	1.0272	-0.0020	0.0000	0.0000;
	243	1	0	-0.01	0	13.49	0	1.06090801	-1.62511132	150	8	1.1	0.9	1.0029	0.0004	0.0000	0.0000;
	244	1	-0	-0	0	0.68	0	1.06879852	-9.14332169	150	8	1.1	0.9	1.0105	0.0037	0.0000	0.0000;
	249	1	-0	-0	0	26.3	0	1.03460229	-6.40603949	220	4	1.1	0.9	1.0125	-0.0016	0.0000	0.0000;
	257	1	113.9	24.5	0	6.72	0	1.06611836	-8.79174103	220	4	1.1	0.9	1.0167	-0.0013	0.0000	0.0000;
	261	1	-0	0	0	1.29	0	1.08665107	-10.7691311	380	10	1.1	0.9	1.0270	-0.0012	0.0000	0.0000;
	264	1	38.74	9	0	0.57	0	1.0639021	-5.23671062	220	4	1.1	0.9	1.0023	0.0001	0.0000	0.0000;
	266	1	0	-0	0	140.96	0	1.08841307	-4.02693481	380	4	1.1	0.9	1.0022	-0.0033	0.0000	0.0000;
	267	1	103.8	2.7	0	3.33	0	1.07367304	-9.24642219	220	4	1.1	0.9	1.0200	0.0005	0.0000	0.0000;
	268	1	-0.13	-1	0	0	0	1.04120623	-3.4399729	220	8	1.1	0.9	1.0005	0.0020	0.0000	0.0000;
	271	1	96.7	26.8	0	0	0	1.07143217	-9.91354499	150	2	1.1	0.9	1.0130	0.0044	0.0000	0.0000;
	275	1	102.1	25.3	0	1.11	0	1.06196185	-11.9508083	150	8	1.1	0.9	1.0287	0.0062	0.0000	0.0000;
	280	1	119.6	29.6	0	5.34	0	1.07979739	-5.6067335	220	5	1.1	0.9	1.0066	0.0004	0.0000	0.0000;
	281	1	-0	-0	0	18.07	0	1.07814093	-4.12056507	380	8	1.1	0.9	1.0110	0.0019	0.0000	0.0000;
	283	1	27.33	11.9	0	1.17	0	1.05937849	-11.1318218	220	5	1.1	0.9	1.0260	0.0049	0.0000	0.0000;
	284	1	191.2	-3.4	0	19.21	0	1.06500325	-13.819131	220	4	1.1	0.9	1.0329	-0.0002	0.0000	0.0000;
	292	1	13.82	1.4	0	0.7	0	1.09712662	-7.61051855	220	5	1.1	0.9	1.0140	0.0014	0.0000	0.0000;
	297	1	23.73	9.4	0	1.45	0	1.06259175	-12.5031777	150	8	1.1	0.9	1.0269	0.0041	0.0000	0.0000;
	299	2	0	0	0	0	0	1.1	-3.64328232	380	4	1.1	0.9	1.0000	-0.0000	23.3576	0.0000;
	304	1	2.2	0.5	0	0.21	0	1.02577882	-17.7388417	150	10	1.1	0.9	1.0459	0.0007	0.0000	0.0000;
	305	1	103	12	0	0.63	0	1.08239264	-18.9329494	220	5	1.1	0.9	1.0465	-0.0047	0.0000	0.0000;
	306	1	-0	0	0	4.76	0	1.04695686	-14.1772558	220	5	1.1	0.9	1.0268	-0.0030	0.0000	0.0000;
	311	1	42.05	17.2	0	1.31	0	1.06078027	-12.6847304	150	8	1.1	0.9	1.0269	0.0100	0.0000	0.0000;
	312	1	-0.16	-2.91	0	0.43	0	1.09782252	-9.40894992	110	8	1.1	0.9	1.0001	-0.0432	0.0000	0.0000;
	314	1	163.1	46.3	0	10.6	0	1.03435624	-14.3656889	220	5	1.1	0.9	1.0397	0.0132	0.0000	0.0000;
	315	1	-0	-0	0	2.13	0	1.04097554	-5.91769132	220	10	1.1	0.9	1.0030	-0.0026	0.0000	0.0000;
	317	1	-0	-0	0.045946	-1.82203	0	1.04047536	-2.05203099	380	2	1.1	0.9	1.0002	-0.0001	0.0000	0.0000;
	322	1	303.8	85.4	0	3.63	0	0.988754217	-11.3028356	220	10	1.1	0.9	1.0292	0.0036	0.0000	0.0000;
	326	1	0	0	0	0	0	1.04119416	-3.40531004	220	8	1.1	0.9	1.0006	0.0020	0.0000	0.0000;
	333	1	524.5	43	0	6.85	0	1.03832819	-26.4221208	220	5	1.1	0.9	1.1045	0.0123	0.0000	0.0000;
	338	2	0	0	0	0	0	1.0992555	-3.14260811	220	5	1.1	0.9	1.0000	-0.0000	0.0000	0.0000;
	344	1	372.8	147.5	0	27.73	0	1.06930826	-18.1963122	150	8	1.1	0.9	1.0544	0.0060	0.0000	0.0000;
	346	1	197.5	48.3	0	0.71	0	1.08492214	-13.1962285	220	5	1.1	0.9	1.0307	0.0014	0.0000	0.0000;
	349	1	-0	0	0	15.15	0	1.08253425	-9.38176531	150	8	1.1	0.9	1.0212	0.0041	0.0000	0.0000;
	350	1	110.4	26.2	0	5.62	0	1.06861914	-16.5814419	220	5	1.1	0.9	1.0390	-0.0083	0.0000	0.0000;
	351	1	-0.15	-1.93	0	0	0	1.04554867	-8.28248431	220	8	1.1	0.9	1.0233	0.0017	0.0000	0.0000;
	352	2	0	0	0	0	0	1.01938695	1.51045363	380	5	1.1	0.9	1.0000	-0.0000	0.0000	0.0000;
	360	1	35.54	11.5	0	3.65	0	1.09125936	-9.57288138	110	8	1.1	0.9	1.0059	-0.0435	0.0000	0.0000;
	367	1	65.17	-51.5	0	4.85	0	1.09517985	-17.8923753	220	5	1.1	0.9	1.0244	-0.0703	0.0000	0.0000;
	369	1	-0	0	0	3.78	0	1.07525518	-9.84770456	220	8	1.1	0.9	1.0327	-0.0025	0.0000	0.0000;
	370	1	56.76	23.2	0	0.49	0	1.05822765	-12.8560044	150	8	1.1	0.9	1.0291	0.0109	0.0000	0.0000;
	377	1	-0.18	-1	0	0	0	1.07181292	-5.5681902	150	8	1.1	0.9	1.0138	0.0023	0.0000	0.0000;
	380	1	-95.71	-2.8	0	7.25	0	1.01426692	-3.26302028	220	10	1.1	0.9	0.9899	-0.0008	0.0000	0.0000;
	385	1	-0	-0	0	105.84	0	1.08477969	-8.95977794	380	4	1.1	0.9	1.0202	-0.0024	0.0000	0.0000;
	387	1	-0.19	-4.38	0	0	0	1.06771236	-11.0108893	150	8	1.1	0.9	1.0210	0.0051	0.0000	0.0000;
	389	2	0	0	0	0	0	1.03102882	-8.32495205	150	10	1.1	0.9	1.0000	-0.0000	0.0000	0.0000;
	392	1	134.1	34.2	0	0.75	0	1.05690805	-13.7336712	150	8	1.1	0.9	1.0299	0.0063	0.0000	0.0000;
	395	1	-0	-0	0	7.85	0	1.07786564	-3.63505272	380	8	1.1	0.9	1.0128	0.0025	0.0000	0.0000;
	401	1	56.5	36.29	0	3.08	0	1.09477048	-5.09079473	220	5	1.1	0.9	1.0005	0.0002	0.0000	0.0000;
	408	1	129.1	7.4	0	0.04	0	1.06847562	-10.6608557	220	5	1.1	0.9	1.0227	0.0026	0.0000	0.0000;
	410	1	170.89	50.38	0	6.44	0	1.08289273	-10.7383578	220	5	1.1	0.9	1.0251	0.0002	0.0000	0.0000;
	413	2	0	0	0	0	0	1.07837455	1.00502445	220	5	1.1	0.9	1.0000	-0.0000	0.0000	0.0000;
	415	1	4.71	0.7	0	11.39	0	1.06942702	-10.2778056	220	4	1.1	0.9	1.0177	-0.0018	0.0000	0.0000;
	416	1	70.68	13.5	0	6.96	0	1.08893671	-5.76149698	220	5	1.1	0.9	1.0046	0.0012	0.0000	0.0000;
	420	1	0	0	0	0	0	1.09115798	-1.44211007	380	8	1.1	0.9	1.0025	0.0007	0.0000	0.0000;
	425	1	-0	0	0	2.72	0	1.05830957	-4.89557002	380	1	1.1	0.9	1.0133	0.0018	0.0000	0.0000;
	426	1	123.1	6.5	0	3.25	0	1.0806037	-9.54360334	220	5	1.1	0.9	1.0307	0.0011	0.0000	0.0000;
	427	1	-0	0	0	1.24	0	1.08650346	-4.22731265	380	1	1.1	0.9	1.0000	-0.0022	0.0000	0.0000;
	429	1	26.93	-22.4	0	4.95	0	1.08621405	-6.23788193	220	4	1.1	0.9	1.0014	0.0003	0.0000	0.0000;
	432	1	-0	-0	0	68.517663	0	1.05994798	0.0965046819	380	5	1.1	0.9	0.9978	-0.0002	0.0000	0.0000;
	440	2	0	0	0	0	0	1.03858067	-3.64092858	220	4	1.1	0.9	1.0000	-0.0000	0.0000	0.0000;
	441	1	-0	0	0.199768	27.888516	0	1.07040501	-15.9349807	380	10	1.1	0.9	1.0476	0.0017	0.0000	0.0000;
	442	2	0	0	0	0	0	1.06194948	-3.69569132	220	4	1.1	0.9	1.0000	0.0004	0.0000	0.0000;
	444	1	0	-0	0	2.45	0	1.05941257	-11.1625182	220	5	1.1	0.9	1.0255	0.0049	0.0000	0.0000;
	445	1	36.74	10.3	0	8.1	0	1.06473514	-10.1231155	220	4	1.1	0.9	1.0153	0.0003	0.0000	0.0000;
	449	1	0	0	0	29.42	0	1.02408937	-2.77485158	380	5	1.1	0.9	1.0043	-0.0000	0.0000	0.0000;
	453	2	0	0	0	0	0	1.06617626	-1.09495124	380	5	1.1	0.9	1.0000	-0.0000	0.0000	0.0000;
	455	1	274.32	5.66	0	13.24	0	1.06854952	-16.8951038	220	5	1.1	0.9	1.0524	0.0063	0.0000	0.0000;
	472	1	336.2	131.6	0	64.01	0	1.08318302	-10.5081409	150	8	1.1	0.9	1.0195	0.0049	0.0000	0.0000;
	473	1	-22.95	-3.72	0	14.34	0	1.0693479	-4.65753876	220	4	1.1	0.9	1.0015	-0.0037	0.0000	0.0000;
	477	1	0	0	0	70.37	0	1.07606502	-6.63785834	380	4	1.1	0.9	1.0124	-0.0031	0.0000	0.0000;
	481	1	-0	0	0	17.44	0	1.06557416	-13.4439444	220	4	1.1	0.9	1.0312	-0.0001	0.0000	0.0000;
	483	1	57.26	15.6	0	3.43	0	1.08932615	-7.2655166	220	4	1.1	0.9	1.0032	0.0004	0.0000	0.0000;
	486	1	7.01	2	0	0.44	0	1.06522914	-10.4646931	150	8	1.1	0.9	1.0195	0.0046	0.0000	0.0000;
	489	2	0	0	0	0	0	1.06321203	-5.3696731	220	4	1.1	0.9	1.0033	0.0000	0.0000	0.0000;
	490	1	20.52	4	0	2.77	0	1.05760538	-16.8226622	220	5	1.1	0.9	1.0337	-0.0008	0.0000	0.0000;
	496	1	-0	-0	0	10.04	0	1.0700925	-5.30981689	150	8	1.1	0.9	1.0159	0.0029	0.0000	0.0000;
	500	1	144.4	35.5	0	7.66	0	1.08110532	-6.43448279	220	5	1.1	0.9	1.0097	0.0020	0.0000	0.0000;
	502	1	-0	0	0	1.96	0	1.07672825	-2.47923149	220	5	1.1	0.9	1.0001	0.0000	0.0000	0.0000;
	506	1	-0	0	0	0.4	0	1.08275243	-0.930834309	380	5	1.1	0.9	1.0001	0.0000	0.0000	0.0000;
	509	1	77.29	7	0	17.6	0	1.08590869	-15.3345622	220	4	1.1	0.9	1.0364	0.0007	0.0000	0.0000;
	513	1	57.46	17.1	0	1.61	0	1.07215861	-3.31840758	220	5	1.1	0.9	1.0041	0.0009	0.0000	0.0000;
	516	2	0	0	0	0	0	1.09245657	-16.1972215	220	5	1.1	0.9	1.0400	0.0000	0.0000	0.0000;
	519	1	207.2	9.4	0	8.77	0	1.0787509	-8.85438612	220	4	1.1	0.9	1.0174	-0.0015	0.0000	0.0000;
	520	1	118.5	20.4	0	2.57	0	1.09449759	-7.58229408	220	5	1.1	0.9	1.0109	0.0003	0.0000	0.0000;
	523	1	189.9	74.7	0	26.2	0	1.07740144	-11.1612835	150	8	1.1	0.9	1.0284	0.0062	0.0000	0.0000;
	527	1	277.7	45.4	0	0.7	0	1.06435607	-5.06604308	220	4	1.1	0.9	1.0016	0.0001	0.0000	0.0000;
	536	1	87.8	-1.4	0.079073	36.047349	0	1.08922941	-12.2332077	380	10	1.1	0.9	1.0300	-0.0006	0.0000	0.0000;
	539	1	57.96	18.9	0	14.91	0	1.06354233	-11.2680222	150	8	1.1	0.9	1.0245	0.0051	0.0000	0.0000;
	544	1	79.69	39.6	0	18.83	0	1.07225849	-15.6665506	380	10	1.1	0.9	1.0455	0.0015	0.0000	0.0000;
	548	1	30.93	8.9	0	0.45	0	1.04345666	-11.6596696	110	8	1.1	0.9	1.0272	0.0020	0.0000	0.0000;
	549	1	0	-0	0	5.15	0	1.09999747	-4.02145677	220	5	1.1	0.9	1.0032	-0.0079	0.0000	0.0000;
	550	1	0	-0	0	10	0	1.06542502	-9.15796492	220	4	1.1	0.9	1.0139	-0.0032	0.0000	0.0000;
	552	1	180.8	90.8	0	2.42	0	0.992909069	-9.18801755	150	10	1.1	0.9	1.0241	0.0059	0.0000	0.0000;
	554	1	0	-0	0	1.97	0	1.06876214	-13.0938311	220	5	1.1	0.9	1.0294	0.0049	0.0000	0.0000;
	556	1	16.52	9	0	1.17	0	1.05830904	-16.6208094	220	5	1.1	0.9	1.0324	-0.0009	0.0000	0.0000;
	558	1	-0.18	-3.57	0	0	0	1.06091549	-1.62509098	150	8	1.1	0.9	1.0029	0.0004	0.0000	0.0000;
	559	1	42.25	16.6	0	0	0	1.06473295	-12.0278339	150	8	1.1	0.9	1.0262	0.0059	0.0000	0.0000;
	561	1	0	-0	0	0.32	0	1.09047802	-2.9628869	220	5	1.1	0.9	1.0047	0.0001	0.0000	0.0000;
	564	2	0	0	0	0	0	1.09733281	-28.3422254	220	5	1.1	0.9	1.0766	-0.0392	0.0000	0.0000;
	575	1	0	-0	0	0.67	0	1.06810223	-10.7766388	220	5	1.1	0.9	1.0232	0.0032	0.0000	0.0000;
	577	1	-0.13	-1	0	0	0	1.04070518	-3.50202592	220	8	1.1	0.9	1.0005	0.0020	0.0000	0.0000;
	579	1	17.32	6.6	0	16.52	0	1.0856171	-7.7979866	380	4	1.1	0.9	1.0150	0.0006	0.0000	0.0000;
	583	2	0	0	0	0	0	1.09144745	-4.44278099	220	5	1.1	0.9	1.0000	0.0004	0.0000	0.0000;
	585	1	21.12	8.3	0	4.26	0	1.07481971	-12.4686339	150	8	1.1	0.9	1.0236	0.0012	0.0000	0.0000;
	593	1	-0	0	0	29.2	0	1.09259663	-1.77656715	380	8	1.1	0.9	1.0019	0.0000	0.0000	0.0000;
	594	1	67.57	17	0	5.75	0	1.06016958	-1.26329645	220	5	1.1	0.9	1.0128	0.0026	0.0000	0.0000;
	595	1	47.55	5.3	0	7.59	0	1.0786323	-9.36464457	220	4	1.1	0.9	1.0210	-0.0015	0.0000	0.0000;
	597	1	33.34	15.7	0	64.15	0	1.09702921	-8.31632551	380	4	1.1	0.9	1.0175	-0.0049	0.0000	0.0000;
	601	1	140.6	42.6	0	5.71	0	1.09171963	-6.55611043	220	5	1.1	0.9	1.0097	0.0019	0.0000	0.0000;
	602	1	110.8	-8.8	0	3.15	0	1.06564544	-12.5409329	220	4	1.1	0.9	1.0260	-0.0004	0.0000	0.0000;
	604	1	33.24	4.4	0	24.54	0	1.02569409	-8.09685685	380	5	1.1	0.9	1.0217	-0.0003	0.0000	0.0000;
	608	1	150.9	10.4	0	4.77	0	1.09616188	-7.82796916	220	5	1.1	0.9	1.0127	-0.0135	0.0000	0.0000;
	609	1	-0	-0	0	5.67	0	1.06857959	-8.17412042	220	5	1.1	0.9	1.0191	0.0056	0.0000	0.0000;
	610	1	-0	0	0	0.91	0	1.0224854	-19.3619922	150	10	1.1	0.9	1.0553	0.0015	0.0000	0.0000;
	615	2	0	0	0	0	0	1.09761137	-3.57779301	220	5	1.1	0.9	0.9927	-0.0000	0.0000	0.0000;
	616	2	0	0	0	0	0	1.1	-4.9557273	220	5	1.1	0.9	1.0005	-0.0000	14.7112	0.0000;
	618	2	0	0	0	0	0	1.09399145	-4.84619537	380	4	1.1	0.9	1.0057	0.0000	0.0000	0.0000;
	619	1	72.88	14.4	0	2.96	0	1.09427838	-16.7633828	220	5	1.1	0.9	1.0384	0.0023	0.0000	0.0000;
	621	1	21.42	8.1	0	7.38	0	1.071943	-11.2677805	220	4	1.1	0.9	1.0310	0.0018	0.0000	0.0000;
	628	2	0	0	0	0	0	0.999296651	-5.0685185	220	10	1.1	0.9	1.0000	0.0000	0.0000	0.0000;
	639	2	0	0	0	0	0	1.09665628	-19.7474663	220	5	1.1	0.9	1.0647	0.0000	0.0000	0.0000;
	641	1	45.32	18.5	0	0.74	0	1.09625523	-1.3250005	220	5	1.1	0.9	1.0050	0.0007	0.0000	0.0000;
	642	2	0	0	0	0	0	1.09453646	-5.47563024	380	4	1.1	0.9	1.0071	0.0000	0.0000	0.0000;
	643	1	15.52	6.3	0	0.6	0	1.06444047	-12.4428979	150	8	1.1	0.9	1.0237	0.0087	0.0000	0.0000;
	649	1	40.94	19.2	0	5.2	0	1.06593477	-13.6736059	220	4	1.1	0.9	1.0320	-0.0002	0.0000	0.0000;
	650	1	17.22	4.4	0	1.71	0	1.04200286	-13.4952155	110	8	1.1	0.9	1.0455	0.0014	0.0000	0.0000;
	656	1	-0.15	-1.93	0	0	0	1.04552246	-8.28166535	220	8	1.1	0.9	1.0233	0.0017	0.0000	0.0000;
	658	1	258.4	66.7	0	5.87	0	1.06095868	-7.69584862	220	5	1.1	0.9	1.0138	0.0072	0.0000	0.0000;
	659	1	-0	-0	0.174507	73.977052	0	1.04120119	-2.15581524	380	2	1.1	0.9	1.0005	0.0001	0.0000	0.0000;
	661	1	-0	-0	0	0.6	0	1.03256951	-2.2928216	380	5	1.1	0.9	1.0034	-0.0001	0.0000	0.0000;
	662	1	0	-0	0	4.14	0	1.06270406	-6.76573853	380	8	1.1	0.9	1.0195	0.0032	0.0000	0.0000;
	666	1	-5.61	-2.79	0	150.93	0	1.05939559	-3.06072516	380	5	1.1	0.9	1.0032	-0.0001	0.0000	0.0000;
	676	1	109.3	35.4	0	1.91	0	1.05761286	-11.2135989	150	8	1.1	0.9	1.0186	0.0028	0.0000	0.0000;
	678	1	232.1	89.8	0	0.09	0	1.08730859	-2.47862734	220	5	1.1	0.9	1.0087	0.0033	0.0000	0.0000;
	682	2	0	0	0	0	0	1.0875955	-3.3390108	220	5	1.1	0.9	1.0000	-0.0003	0.0000	0.0000;
	686	2	0	0	0	0	0	1.06968149	-4.78841065	220	4	1.1	0.9	1.0000	-0.0000	0.0000	0.0000;
	687	1	-0	0	0	5.6	0	1.07495506	-5.35923366	220	5	1.1	0.9	1.0031	0.0006	0.0000	0.0000;
	693	1	-0	0	0	93.75	0	1.08716509	-3.84129546	380	4	1.1	0.9	1.0016	-0.0008	0.0000	0.0000;
	695	1	96.41	26.5	0	0.08	0	1.02382807	-5.13125058	220	4	1.1	0.9	1.0069	0.0011	0.0000	0.0000;
	698	2	0	0	0	0	0	0.998340045	-2.47536206	220	10	1.1	0.9	0.9923	-0.0000	0.0000	0.0000;
	699	1	36.54	8.4	0	6.58	0	1.07548232	-9.34345975	220	4	1.1	0.9	1.0090	0.0006	0.0000	0.0000;
	702	1	-0	-0	0	0.48	0	1.01327951	-5.81382539	150	10	1.1	0.9	1.0000	-0.0000	0.0000	0.0000;
	706	1	114.8	22.8	0	5.66	0	1.03931206	-7.35571931	220	4	1.1	0.9	1.0120	0.0009	0.0000	0.0000;
	707	1	83.99	21.2	0	5.36	0	1.07164284	-8.13477124	220	5	1.1	0.9	1.0123	0.0037	0.0000	0.0000;
	709	2	0	0	0	0	0	1.09335492	-4.87037026	380	4	1.1	0.9	1.0050	-0.0027	0.0000	0.0000;
	710	1	76.38	5.1	0	3.97	0	1.07921464	-9.09152604	220	4	1.1	0.9	1.0177	-0.0052	0.0000	0.0000;
	712	1	110.4	41.9	0	1.88	0	1.04665358	-16.7080891	150	8	1.1	0.9	1.0649	0.0129	0.0000	0.0000;
	718	1	135.11	41	0	5.31	0	1.08391736	-7.75690988	220	5	1.1	0.9	1.0142	0.0024	0.0000	0.0000;
	720	1	-0	-0	0	23.554121	0	1.02679218	-17.6774553	380	5	1.1	0.9	1.0615	0.0005	0.0000	0.0000;
	722	1	0	-0	0	0.78	0	1.06625009	-11.6305101	150	8	1.1	0.9	1.0180	0.0048	0.0000	0.0000;
	726	1	400.3	189.9	0	0.53	0	1.06576374	-6.19583736	220	5	1.1	0.9	1.0056	0.0018	0.0000	0.0000;
	731	1	0	0	0	61.48	0	1.0862397	-9.21839054	380	4	1.1	0.9	1.0212	-0.0028	0.0000	0.0000;
	733	1	58.36	10.7	0	8.41	0	1.0380949	-16.3236002	110	8	1.1	0.9	1.0843	-0.0018	0.0000	0.0000;
	739	2	0	0	0	0	0	1.07460178	-3.29145311	380	4	1.1	0.9	1.0000	-0.0007	0.0000	0.0000;
	742	1	0	-0	0	2.83	0	1.07512755	-5.36074187	220	5	1.1	0.9	1.0031	0.0005	0.0000	0.0000;
	747	1	69.58	16	0	3.03	0	1.09843157	-20.558794	220	5	1.1	0.9	1.0258	-0.0937	0.0000	0.0000;
	749	2	0	0	0	0	0	1.07809434	-5.02025182	220	5	1.1	0.9	1.0000	-0.0000	0.0000	0.0000;
	750	1	-0	-0	0	18.63	0	1.08812289	-15.266722	220	5	1.1	0.9	1.0361	-0.0000	0.0000	0.0000;
	751	2	0	0	0	0	0	1.0608727	-3.80892906	220	4	1.1	0.9	1.0000	-0.0000	0.0000	0.0000;
	754	1	132.1	32.4	0	58.29	0	1.08737487	-4.47878507	380	4	1.1	0.9	1.0030	-0.0009	0.0000	0.0000;
	757	2	0	0	0	0	0	1.05400772	-5.4226292	380	5	1.1	0.9	1.0131	0.0007	0.0000	0.0000;
	766	1	-0	0	0	7.85	0	1.08950097	-12.9306938	220	5	1.1	0.9	1.0376	-0.0002	0.0000	0.0000;
	769	1	152.57	40	0	6.12	0	1.04203207	-9.41929748	220	5	1.1	0.9	1.0266	0.0068	0.0000	0.0000;
	772	1	343.9	141.9	0	5.55	0	1.07455362	-7.50135508	220	5	1.1	0.9	1.0151	0.0039	0.0000	0.0000;
	775	1	-55.14	-27.14	0	0	0	1.08325316	-10.5006019	150	8	1.1	0.9	1.0195	0.0049	0.0000	0.0000;
	776	2	0	0	0	0	0	1.09098657	-5.42203392	220	5	1.1	0.9	1.0036	0.0000	0.0000	0.0000;
	778	2	0	0	0	0	0	1.09953653	-3.13788987	220	5	1.1	0.9	1.0000	-0.0000	0.0000	0.0000;
	780	2	0	0	0	0	0	1.03963604	-10.4859156	220	10	1.1	0.9	1.0164	0.0000	0.0000	0.0000;
	784	1	-26	-14.72	0	0	0	1.06526189	-12.3461421	150	8	1.1	0.9	1.0262	0.0030	0.0000	0.0000;
	785	1	-0	-0	0	4.03	0	1.04591279	-4.14165471	220	10	1.1	0.9	1.0008	-0.0011	0.0000	0.0000;
	789	1	-0	-0	0	6.63	0	1.09026607	-5.893814	220	5	1.1	0.9	1.0042	0.0010	0.0000	0.0000;
	790	1	-0.15	-1	0	0.42	0	1.09965288	-8.52116071	110	8	1.1	0.9	0.9988	-0.0450	0.0000	0.0000;
	792	1	295.3	41.9	0	0	0	1.04096041	-9.03857089	150	2	1.1	0.9	1.0075	0.0051	0.0000	0.0000;
	795	2	0	0	0	0	0	1.1	-0.826867087	220	5	1.1	0.9	1.0001	-0.0000	2.2409	0.0000;
	797	1	2	114.6	0	16.15	0	1.04079863	-3.62025478	220	4	1.1	0.9	1.0010	-0.0013	0.0000	0.0000;
	800	1	50.56	18	0	0.11	0	1.05896224	-11.1642456	220	5	1.1	0.9	1.0264	0.0050	0.0000	0.0000;
	803	2	0	0	0	0	0	1.09869942	-5.64244426	220	5	1.1	0.9	1.0000	-0.0000	0.0000	0.0000;
	804	1	-0	-0	0	7.26	0	1.1	-4.19758423	220	5	1.1	0.9	1.0014	-0.0013	17.7655	0.0000;
	805	1	124.5	29.6	0	15.4	0	1.09830183	-6.45986096	220	5	1.1	0.9	1.0076	0.0011	0.0000	0.0000;
	806	1	-0	-0	0	32.02	0	1.04893734	-6.7157571	380	8	1.1	0.9	1.0185	0.0005	0.0000	0.0000;
	807	2	0	0	0	0	0	1.09936756	-3.31600323	380	4	1.1	0.9	1.0000	-0.0000	0.0000	0.0000;
	808	1	24.53	8.6	0	7.01	0	1.08412176	-8.3592805	220	4	1.1	0.9	1.0117	0.0011	0.0000	0.0000;
	809	1	0	-0	0	58.088687	0	1.0390457	-1.98307809	380	5	1.1	0.9	1.0013	0.0002	0.0000	0.0000;
	814	1	287.7	16.3	0	12.86	0	1.08410067	-7.04525959	380	4	1.1	0.9	1.0125	0.0008	0.0000	0.0000;
	819	1	0	-0	0	0.22	0	1.0865235	-2.88848975	220	5	1.1	0.9	0.9988	-0.0001	0.0000	0.0000;
	823	2	0	0	0	0	0	1.02197444	0.67460315	380	5	1.1	0.9	1.0000	-0.0000	0.0000	0.0000;
	838	1	615.81	286.69	0	101.04	0	1.06571305	-13.8336197	150	8	1.1	0.9	1.0455	0.0094	0.0000	0.0000;
	839	1	-0	-0	0	8.17514	0	1.03699383	-2.65336997	380	5	1.1	0.9	1.0033	0.0004	0.0000	0.0000;
	849	2	0	0	0	0	0	1.07887698	-3.60573217	380	4	1.1	0.9	0.9998	-0.0000	0.0000	0.0000;
	851	2	0	0	0	0	0	1.09984059	-1.46937761	220	5	1.1	0.9	1.0007	0.0001	0.0000	0.0000;
	854	1	49.96	7.5	0	8.86	0	1.07241243	-12.2825419	220	4	1.1	0.9	1.0269	-0.0024	0.0000	0.0000;
	858	2	0	0	0	0	0	1.03993315	-1.4427571	380	5	1.1	0.9	1.0000	-0.0000	0.0000	0.0000;
	869	1	94.2	5.5	0	6.51	0	1.06591062	-12.1022118	220	4	1.1	0.9	1.0231	-0.0002	0.0000	0.0000;
	870	1	110	3.4	0	11.95	0	1.08779507	-15.4109801	220	5	1.1	0.9	1.0369	-0.0001	0.0000	0.0000;
	871	1	108.89	-21.76	0	3.72	0	1.08856005	-3.6551636	220	5	1.1	0.9	1.0062	0.0002	0.0000	0.0000;
	878	1	0	-0	0	25.28	0	1.07990971	-7.00624684	150	8	1.1	0.9	1.0180	0.0022	0.0000	0.0000;
	883	1	192.5	78.3	0	6.65	0	1.06498859	-6.63530933	220	5	1.1	0.9	1.0179	0.0062	0.0000	0.0000;
	891	2	0	0	0	0	0	1.08440124	-3.97481572	380	5	1.1	0.9	1.0103	0.0000	0.0000	0.0000;
	892	1	-0	-0	0	9.1	0	1.08691349	-17.7139826	220	5	1.1	0.9	1.0482	0.0003	0.0000	0.0000;
	898	1	25.63	7.9	0	0.77	0	1.04052896	-11.8654952	110	8	1.1	0.9	1.0299	0.0090	0.0000	0.0000;
	900	1	0	0	0	0.15	0	1.08039744	-6.44487405	220	5	1.1	0.9	1.0194	0.0012	0.0000	0.0000;
	903	1	82.69	20.1	0	1.36	0	1.09839553	-20.5827444	220	5	1.1	0.9	1.0256	-0.0937	0.0000	0.0000;
	905	1	631.71	-54.16	0	7.534129	0	1.07009016	-5.08192869	380	5	1.1	0.9	1.0064	-0.0002	0.0000	0.0000;
	907	1	-0	-0	0	0.05	0	1.09287989	-3.75991055	220	5	1.1	0.9	1.0001	-0.0000	0.0000	0.0000;
	908	1	125.9	-0.5	0	0.21	0	1.09290384	-1.79820654	220	5	1.1	0.9	0.9998	-0.0000	0.0000	0.0000;
	913	2	0	0	0	0	0	1.05840505	-2.14002429	380	2	1.1	0.9	1.0020	0.0000	0.0000	0.0000;
	916	2	0	0	0	0	0	1.04144631	-3.34616981	220	4	1.1	0.9	0.9999	-0.0000	0.0000	0.0000;
	919	1	-0	0	0	13.89	0	1.05309769	-7.04554324	380	8	1.1	0.9	1.0225	0.0032	0.0000	0.0000;
	920	1	34.44	8.5	0	1.11	0	1.08954833	-12.7095717	220	5	1.1	0.9	1.0265	0.0003	0.0000	0.0000;
	923	1	62.07	14.7	0	4.84	0	1.056865	-16.9073148	220	5	1.1	0.9	1.0349	-0.0007	0.0000	0.0000;
	928	1	112.9	19.3	0	17.34	0	1.0614414	-12.8038423	150	8	1.1	0.9	1.0299	0.0053	0.0000	0.0000;
	929	1	43.75	12.4	0	9.35	0	1.06534923	-11.6519306	220	4	1.1	0.9	1.0208	0.0003	0.0000	0.0000;
	930	2	0	0	0	0	0	1.07759706	-3.59634092	380	4	1.1	0.9	1.0000	-0.0000	0.0000	0.0000;
	932	1	77.59	12.3	0	5.1	0	1.0730287	-12.0534535	220	4	1.1	0.9	1.0262	-0.0020	0.0000	0.0000;
	933	1	-0	0	0	22.75	0	1.07702423	-8.80909621	220	5	1.1	0.9	1.0247	0.0040	0.0000	0.0000;
	935	1	-0	0	0	9.46	0	1.09629773	-16.0451607	220	5	1.1	0.9	1.0332	0.0023	0.0000	0.0000;
	947	1	90.7	5.8	0	4.1	0	1.04322802	-6.34861341	220	4	1.1	0.9	0.9984	0.0028	0.0000	0.0000;
	948	1	15.82	4	0	0.7	0	1.02291903	-18.9847609	150	10	1.1	0.9	1.0532	0.0015	0.0000	0.0000;
	950	1	69.08	22.6	0	0.54	0	1.06642201	-12.9269872	150	8	1.1	0.9	1.0310	0.0007	0.0000	0.0000;
	953	1	108.7	-12.15	0	37.11	0	1.05412651	-4.81428503	380	5	1.1	0.9	1.0132	0.0007	0.0000	0.0000;
	954	1	66.27	13.6	0	0.67	0	1.09411653	-11.9494863	220	5	1.1	0.9	1.0302	0.0016	0.0000	0.0000;
	955	1	244.2	152.7	0	0	0	1.03643194	-11.8537083	150	2	1.1	0.9	1.0245	0.0147	0.0000	0.0000;
	957	1	65.77	16.1	0	1.66	0	1.06196385	-4.94327684	220	4	1.1	0.9	1.0034	0.0004	0.0000	0.0000;
	960	1	-0	-0	0	108.728602	0	1.08275109	-0.930829725	380	5	1.1	0.9	1.0001	0.0000	0.0000	0.0000;
	962	1	42.55	17.1	0	1.67	0	1.06913636	-9.71698571	220	4	1.1	0.9	1.0230	-0.0029	0.0000	0.0000;
	964	1	88.5	16.5	0	146.44	0	1.05742286	-4.40647846	380	5	1.1	0.9	1.0101	0.0009	0.0000	0.0000;
	970	1	62.27	-2.1	0	8.01	0	1.04868262	-3.68457328	220	4	1.1	0.9	1.0016	-0.0005	0.0000	0.0000;
	972	2	0	0	0	0	0	1.06133548	0.845462027	380	5	1.3	0.7	0.9946	-0.0000	0.0000	0.0000;
	976	2	0	0	0	0	0	1.09402536	-5.32476998	380	4	1.1	0.9	1.0073	0.0002	0.0000	0.0000;
	980	1	14.71	4.6	0	7.88	0	1.09464773	-16.6586996	220	5	1.1	0.9	1.0373	0.0024	0.0000	0.0000;
	981	1	0	-0	0	0.84	0	1.06042397	-3.96757495	220	4	1.1	0.9	1.0012	0.0001	0.0000	0.0000;
	986	1	15.98	0.86	0	5.96	0	1.0644045	-9.76806947	220	4	1.1	0.9	1.0176	-0.0006	0.0000	0.0000;
	987	1	-0	0	0	1.18	0	1.01918811	-5.89017462	150	10	1.1	0.9	1.0033	0.0004	0.0000	0.0000;
	988	1	-0	-0	0	8.62	0	1.07089649	-11.2102587	220	4	1.1	0.9	1.0227	-0.0017	0.0000	0.0000;
	994	1	-0	-0	0	25	0	1.06551599	-12.4417803	150	8	1.1	0.9	1.0215	0.0054	0.0000	0.0000;
	999	1	20.02	6.8	0	0.48	0	1.02316562	-8.506375	110	8	1.1	0.9	1.0162	0.0086	0.0000	0.0000;
	1000	1	0	-0	0	1.8	0	1.02438022	-3.97121335	220	1	1.1	0.9	0.9994	-0.0001	0.0000	0.0000;
	1001	2	0	0	0	0	0	1.09111678	-16.3800553	220	5	1.1	0.9	1.0406	0.0002	0.0000	0.0000;
	1002	2	0	0	0	0	0	1.08840078	-12.0553186	220	5	1.1	0.9	1.0246	0.0001	0.0000	0.0000;
	1005	1	0	0	0	0.81	0	1.09634473	-4.77634646	220	5	1.1	0.9	0.9982	-0.0000	0.0000	0.0000;
	1010	1	21.32	7.3	0	0.6	0	1.02633128	-6.44812162	110	8	1.1	0.9	1.0046	0.0072	0.0000	0.0000;
	1011	1	-0.2	-1	0	0	0	1.06968536	-18.1925836	150	8	1.1	0.9	1.0544	0.0060	0.0000	0.0000;
	1013	1	136.06	40.4	0	12.08	0	1.03699193	-6.9634708	220	4	1.1	0.9	1.0144	0.0008	0.0000	0.0000;
	1015	1	44.55	0	0	4.78	0	1.0969404	-5.19144861	220	5	1.1	0.9	1.0020	-0.0002	0.0000	0.0000;
	1020	1	8.21	3.31	0	8.38	0	1.06770325	-11.0109105	150	8	1.1	0.9	1.0210	0.0051	0.0000	0.0000;
	1021	2	0	0	0	0	0	1.06487157	-5.45841785	220	4	1.1	0.9	1.0022	-0.0000	0.0000	0.0000;
	1023	1	-0	0	0	0.93	0	1.08683683	-8.76560609	220	4	1.1	0.9	1.0143	-0.0010	0.0000	0.0000;
	1025	1	241.4	-2.5	0.224624	31.280331	0	1.06369868	-16.1328641	380	10	1.1	0.9	1.0490	0.0029	0.0000	0.0000;
	1026	1	201.4	53	0	9.67	0	1.06036884	-10.5054471	220	5	1.1	0.9	1.0312	0.0068	0.0000	0.0000;
	1027	1	-5.91	-2.33	0	30.393595	0	1.01139019	-11.950228	380	5	1.1	0.9	1.0315	-0.0129	0.0000	0.0000;
	1030	2	0	0	0	0	0	1.02871821	-3.89318114	220	4	1.1	0.9	1.0000	0.0000	0.0000	0.0000;
	1033	1	26.33	5.3	0	4.31	0	1.08794906	-15.3377835	220	5	1.1	0.9	1.0370	-0.0002	0.0000	0.0000;
	1035	1	382.5	57.9	0	8.16	0	1.08301006	-18.8239155	220	5	1.1	0.9	1.0458	-0.0048	0.0000	0.0000;
	1036	2	0	0	0	0	0	1.04551654	-2.98771125	220	10	1.1	0.9	0.9934	-0.0000	0.0000	0.0000;
	1037	1	-0	0	0	0.55	0	1.04446634	-2.97363401	380	2	1.1	0.9	1.0027	-0.0004	0.0000	0.0000;
	1039	1	34.64	-0	0	0.91	0	1.08606077	-6.33748556	220	5	1.1	0.9	1.0088	0.0012	0.0000	0.0000;
	1040	1	31.94	8.8	0	3.79	0	1.09164932	-4.22624736	220	5	1.1	0.9	1.0020	0.0000	0.0000	0.0000;
	1043	2	0	0	0	0	0	1.07018073	-1.02649392	380	5	1.1	0.9	0.9999	-0.0000	0.0000	0.0000;